*Heading
** Job name: re_defect1 Model name: re_nodefect5
** Generated by: Abaqus/CAE 2024
*Preprint, echo=NO, model=NO, history=NO, contact=NO
**
** PARTS
**
*Part, name=INTERSTAGE_1/8
*Node
1, -1398.65723, 1398.65723, 0.0
2, -1398.65723, 1398.65723, 25.0
3, -1398.65723, 1398.65723, 50.0
4, -1398.65723, 1398.65723, 75.0
5, -1398.65723, 1398.65723, 100.0
6, -1398.65723, 1398.65723, 125.0
7, -1398.65723, 1398.65723, 150.0
8, -1398.65723, 1398.65723, 175.0
9, -1398.65723, 1398.65723, 200.0
10, -1398.65723, 1398.65723, 225.0
11, -1398.65723, 1398.65723, 250.0
12, -1398.65723, 1398.65723, 275.0
13, -1398.65723, 1398.65723, 300.0
14, -1398.65723, 1398.65723, 325.0
15, -1398.65723, 1398.65723, 350.0
16, -1398.65723, 1398.65723, 375.0
17, -1398.65723, 1398.65723, 400.0
18, -1398.65723, 1398.65723, 425.0
19, -1398.65723, 1398.65723, 450.0
20, -1398.65723, 1398.65723, 475.0
** ... 40174 like lines cut
*Element, type=C3D8R
1, 1, 2, 31, 30, 1828, 1829, 1858, 1857
2, 2, 3, 32, 31, 1829, 1830, 1859, 1858
3, 3, 4, 33, 32, 1830, 1831, 1860, 1859
4, 4, 5, 34, 33, 1831, 1832, 1861, 1860
5, 5, 6, 35, 34, 1832, 1833, 1862, 1861
6, 6, 7, 36, 35, 1833, 1834, 1863, 1862
7, 7, 8, 37, 36, 1834, 1835, 1864, 1863
8, 8, 9, 38, 37, 1835, 1836, 1865, 1864
9, 9, 10, 39, 38, 1836, 1837, 1866, 1865
10, 10, 11, 40, 39, 1837, 1838, 1867, 1866
11, 11, 12, 41, 40, 1838, 1839, 1868, 1867
12, 12, 13, 42, 41, 1839, 1840, 1869, 1868
13, 13, 14, 43, 42, 1840, 1841, 1870, 1869
14, 14, 15, 44, 43, 1841, 1842, 1871, 1870
15, 15, 16, 45, 44, 1842, 1843, 1872, 1871
16, 16, 17, 46, 45, 1843, 1844, 1873, 1872
17, 17, 18, 47, 46, 1844, 1845, 1874, 1873
18, 18, 19, 48, 47, 1845, 1846, 1875, 1874
19, 19, 20, 49, 48, 1846, 1847, 1876, 1875
20, 20, 21, 50, 49, 1847, 1848, 1877, 1876
** ... 36436 like lines cut
*Nset, nset=LAYER1_MAT0, generate
    1,  3654,     1
*Elset, elset=LAYER1_MAT0
1, 2, 3, 4, 5, 6, 7, 8, 9, 10, 11, 12, 13, 14, 15, 16
17, 18, 19, 20, 21, 22, 23, 24, 25, 26, 27, 28, 29, 30, 31, 32
33, 34, 35, 36, 37, 38, 39, 40, 41, 42, 43, 44, 45, 46, 47, 48
49, 50, 51, 52, 53, 54, 55, 56, 57, 58, 59, 60, 61, 62, 63, 64
65, 66, 67, 68, 69, 70, 71, 72, 73, 74, 75, 76, 77, 78, 79, 80
81, 82, 83, 84, 85, 86, 87, 88, 89, 90, 91, 92, 93, 94, 95, 96
97, 98, 99, 100, 101, 102, 103, 104, 105, 106, 107, 108, 109, 110, 111, 112
113, 114, 115, 116, 117, 118, 119, 120, 121, 122, 123, 124, 125, 126, 127, 128
129, 130, 131, 132, 133, 134, 135, 136, 137, 138, 139, 140, 141, 142, 143, 144
145, 146, 147, 148, 149, 150, 151, 152, 153, 154, 155, 156, 157, 158, 159, 160
161, 162, 163, 164, 165, 166, 167, 168, 169, 170, 171, 172, 173, 174, 175, 176
177, 178, 179, 180, 181, 182, 183, 184, 185, 186, 187, 188, 189, 190, 191, 192
193, 194, 195, 196, 197, 198, 199, 200, 201, 202, 203, 204, 205, 206, 207, 208
209, 210, 211, 212, 213, 214, 215, 216, 217, 218, 219, 220, 221, 222, 223, 224
225, 226, 227, 228, 229, 230, 231, 232, 233, 234, 235, 236, 237, 238, 239, 240
241, 242, 243, 244, 245, 246, 247, 248, 249, 250, 251, 252, 253, 254, 255, 256
257, 258, 259, 260, 261, 262, 263, 264, 265, 266, 267, 268, 269, 270, 271, 272
273, 274, 275, 276, 277, 278, 279, 280, 281, 282, 283, 284, 285, 286, 287, 288
289, 290, 291, 292, 293, 294, 295, 296, 297, 298, 299, 300, 301, 302, 303, 304
305, 306, 307, 308, 309, 310, 311, 312, 313, 314, 315, 316, 317, 318, 319, 320
** ... 89 like lines cut
*Nset, nset=LAYER2_MAT45, generate
 1828,  5481,     1
*Elset, elset=LAYER2_MAT45
1737, 1738, 1739, 1740, 1741, 1742, 1743, 1744, 1745, 1746, 1747, 1748, 1749, 1750, 1751, 1752
1753, 1754, 1755, 1756, 1757, 1758, 1759, 1760, 1761, 1762, 1763, 1764, 1765, 1766, 1767, 1768
1769, 1770, 1771, 1772, 1773, 1774, 1775, 1776, 1777, 1778, 1779, 1780, 1781, 1782, 1783, 1784
1785, 1786, 1787, 1788, 1789, 1790, 1791, 1792, 1793, 1794, 1795, 1796, 1797, 1798, 1799, 1800
1801, 1802, 1803, 1804, 1805, 1806, 1807, 1808, 1809, 1810, 1811, 1812, 1813, 1814, 1815, 1816
1817, 1818, 1819, 1820, 1821, 1822, 1823, 1824, 1825, 1826, 1827, 1828, 1829, 1830, 1831, 1832
1833, 1834, 1835, 1836, 1837, 1838, 1839, 1840, 1841, 1842, 1843, 1844, 1845, 1846, 1847, 1848
1849, 1850, 1851, 1852, 1853, 1854, 1855, 1856, 1857, 1858, 1859, 1860, 1861, 1862, 1863, 1864
1865, 1866, 1867, 1868, 1869, 1870, 1871, 1872, 1873, 1874, 1875, 1876, 1877, 1878, 1879, 1880
1881, 1882, 1883, 1884, 1885, 1886, 1887, 1888, 1889, 1890, 1891, 1892, 1893, 1894, 1895, 1896
1897, 1898, 1899, 1900, 1901, 1902, 1903, 1904, 1905, 1906, 1907, 1908, 1909, 1910, 1911, 1912
1913, 1914, 1915, 1916, 1917, 1918, 1919, 1920, 1921, 1922, 1923, 1924, 1925, 1926, 1927, 1928
1929, 1930, 1931, 1932, 1933, 1934, 1935, 1936, 1937, 1938, 1939, 1940, 1941, 1942, 1943, 1944
1945, 1946, 1947, 1948, 1949, 1950, 1951, 1952, 1953, 1954, 1955, 1956, 1957, 1958, 1959, 1960
1961, 1962, 1963, 1964, 1965, 1966, 1967, 1968, 1969, 1970, 1971, 1972, 1973, 1974, 1975, 1976
1977, 1978, 1979, 1980, 1981, 1982, 1983, 1984, 1985, 1986, 1987, 1988, 1989, 1990, 1991, 1992
1993, 1994, 1995, 1996, 1997, 1998, 1999, 2000, 2001, 2002, 2003, 2004, 2005, 2006, 2007, 2008
2009, 2010, 2011, 2012, 2013, 2014, 2015, 2016, 2017, 2018, 2019, 2020, 2021, 2022, 2023, 2024
2025, 2026, 2027, 2028, 2029, 2030, 2031, 2032, 2033, 2034, 2035, 2036, 2037, 2038, 2039, 2040
2041, 2042, 2043, 2044, 2045, 2046, 2047, 2048, 2049, 2050, 2051, 2052, 2053, 2054, 2055, 2056
** ... 89 like lines cut
*Nset, nset=LAYER3_MAT90, generate
 3655,  7308,     1
*Elset, elset=LAYER3_MAT90
3473, 3474, 3475, 3476, 3477, 3478, 3479, 3480, 3481, 3482, 3483, 3484, 3485, 3486, 3487, 3488
3489, 3490, 3491, 3492, 3493, 3494, 3495, 3496, 3497, 3498, 3499, 3500, 3501, 3502, 3503, 3504
3505, 3506, 3507, 3508, 3509, 3510, 3511, 3512, 3513, 3514, 3515, 3516, 3517, 3518, 3519, 3520
3521, 3522, 3523, 3524, 3525, 3526, 3527, 3528, 3529, 3530, 3531, 3532, 3533, 3534, 3535, 3536
3537, 3538, 3539, 3540, 3541, 3542, 3543, 3544, 3545, 3546, 3547, 3548, 3549, 3550, 3551, 3552
3553, 3554, 3555, 3556, 3557, 3558, 3559, 3560, 3561, 3562, 3563, 3564, 3565, 3566, 3567, 3568
3569, 3570, 3571, 3572, 3573, 3574, 3575, 3576, 3577, 3578, 3579, 3580, 3581, 3582, 3583, 3584
3585, 3586, 3587, 3588, 3589, 3590, 3591, 3592, 3593, 3594, 3595, 3596, 3597, 3598, 3599, 3600
3601, 3602, 3603, 3604, 3605, 3606, 3607, 3608, 3609, 3610, 3611, 3612, 3613, 3614, 3615, 3616
3617, 3618, 3619, 3620, 3621, 3622, 3623, 3624, 3625, 3626, 3627, 3628, 3629, 3630, 3631, 3632
3633, 3634, 3635, 3636, 3637, 3638, 3639, 3640, 3641, 3642, 3643, 3644, 3645, 3646, 3647, 3648
3649, 3650, 3651, 3652, 3653, 3654, 3655, 3656, 3657, 3658, 3659, 3660, 3661, 3662, 3663, 3664
3665, 3666, 3667, 3668, 3669, 3670, 3671, 3672, 3673, 3674, 3675, 3676, 3677, 3678, 3679, 3680
3681, 3682, 3683, 3684, 3685, 3686, 3687, 3688, 3689, 3690, 3691, 3692, 3693, 3694, 3695, 3696
3697, 3698, 3699, 3700, 3701, 3702, 3703, 3704, 3705, 3706, 3707, 3708, 3709, 3710, 3711, 3712
3713, 3714, 3715, 3716, 3717, 3718, 3719, 3720, 3721, 3722, 3723, 3724, 3725, 3726, 3727, 3728
3729, 3730, 3731, 3732, 3733, 3734, 3735, 3736, 3737, 3738, 3739, 3740, 3741, 3742, 3743, 3744
3745, 3746, 3747, 3748, 3749, 3750, 3751, 3752, 3753, 3754, 3755, 3756, 3757, 3758, 3759, 3760
3761, 3762, 3763, 3764, 3765, 3766, 3767, 3768, 3769, 3770, 3771, 3772, 3773, 3774, 3775, 3776
3777, 3778, 3779, 3780, 3781, 3782, 3783, 3784, 3785, 3786, 3787, 3788, 3789, 3790, 3791, 3792
** ... 89 like lines cut
*Nset, nset=LAYER4_MAT-45, generate
 5482,  9135,     1
*Elset, elset=LAYER4_MAT-45
5209, 5210, 5211, 5212, 5213, 5214, 5215, 5216, 5217, 5218, 5219, 5220, 5221, 5222, 5223, 5224
5225, 5226, 5227, 5228, 5229, 5230, 5231, 5232, 5233, 5234, 5235, 5236, 5237, 5238, 5239, 5240
5241, 5242, 5243, 5244, 5245, 5246, 5247, 5248, 5249, 5250, 5251, 5252, 5253, 5254, 5255, 5256
5257, 5258, 5259, 5260, 5261, 5262, 5263, 5264, 5265, 5266, 5267, 5268, 5269, 5270, 5271, 5272
5273, 5274, 5275, 5276, 5277, 5278, 5279, 5280, 5281, 5282, 5283, 5284, 5285, 5286, 5287, 5288
5289, 5290, 5291, 5292, 5293, 5294, 5295, 5296, 5297, 5298, 5299, 5300, 5301, 5302, 5303, 5304
5305, 5306, 5307, 5308, 5309, 5310, 5311, 5312, 5313, 5314, 5315, 5316, 5317, 5318, 5319, 5320
5321, 5322, 5323, 5324, 5325, 5326, 5327, 5328, 5329, 5330, 5331, 5332, 5333, 5334, 5335, 5336
5337, 5338, 5339, 5340, 5341, 5342, 5343, 5344, 5345, 5346, 5347, 5348, 5349, 5350, 5351, 5352
5353, 5354, 5355, 5356, 5357, 5358, 5359, 5360, 5361, 5362, 5363, 5364, 5365, 5366, 5367, 5368
5369, 5370, 5371, 5372, 5373, 5374, 5375, 5376, 5377, 5378, 5379, 5380, 5381, 5382, 5383, 5384
5385, 5386, 5387, 5388, 5389, 5390, 5391, 5392, 5393, 5394, 5395, 5396, 5397, 5398, 5399, 5400
5401, 5402, 5403, 5404, 5405, 5406, 5407, 5408, 5409, 5410, 5411, 5412, 5413, 5414, 5415, 5416
5417, 5418, 5419, 5420, 5421, 5422, 5423, 5424, 5425, 5426, 5427, 5428, 5429, 5430, 5431, 5432
5433, 5434, 5435, 5436, 5437, 5438, 5439, 5440, 5441, 5442, 5443, 5444, 5445, 5446, 5447, 5448
5449, 5450, 5451, 5452, 5453, 5454, 5455, 5456, 5457, 5458, 5459, 5460, 5461, 5462, 5463, 5464
5465, 5466, 5467, 5468, 5469, 5470, 5471, 5472, 5473, 5474, 5475, 5476, 5477, 5478, 5479, 5480
5481, 5482, 5483, 5484, 5485, 5486, 5487, 5488, 5489, 5490, 5491, 5492, 5493, 5494, 5495, 5496
5497, 5498, 5499, 5500, 5501, 5502, 5503, 5504, 5505, 5506, 5507, 5508, 5509, 5510, 5511, 5512
5513, 5514, 5515, 5516, 5517, 5518, 5519, 5520, 5521, 5522, 5523, 5524, 5525, 5526, 5527, 5528
** ... 89 like lines cut
*Nset, nset=LAYER5_MAT0, generate
  7309,  10962,      1
*Elset, elset=LAYER5_MAT0
6945, 6946, 6947, 6948, 6949, 6950, 6951, 6952, 6953, 6954, 6955, 6956, 6957, 6958, 6959, 6960
6961, 6962, 6963, 6964, 6965, 6966, 6967, 6968, 6969, 6970, 6971, 6972, 6973, 6974, 6975, 6976
6977, 6978, 6979, 6980, 6981, 6982, 6983, 6984, 6985, 6986, 6987, 6988, 6989, 6990, 6991, 6992
6993, 6994, 6995, 6996, 6997, 6998, 6999, 7000, 7001, 7002, 7003, 7004, 7005, 7006, 7007, 7008
7009, 7010, 7011, 7012, 7013, 7014, 7015, 7016, 7017, 7018, 7019, 7020, 7021, 7022, 7023, 7024
7025, 7026, 7027, 7028, 7029, 7030, 7031, 7032, 7033, 7034, 7035, 7036, 7037, 7038, 7039, 7040
7041, 7042, 7043, 7044, 7045, 7046, 7047, 7048, 7049, 7050, 7051, 7052, 7053, 7054, 7055, 7056
7057, 7058, 7059, 7060, 7061, 7062, 7063, 7064, 7065, 7066, 7067, 7068, 7069, 7070, 7071, 7072
7073, 7074, 7075, 7076, 7077, 7078, 7079, 7080, 7081, 7082, 7083, 7084, 7085, 7086, 7087, 7088
7089, 7090, 7091, 7092, 7093, 7094, 7095, 7096, 7097, 7098, 7099, 7100, 7101, 7102, 7103, 7104
7105, 7106, 7107, 7108, 7109, 7110, 7111, 7112, 7113, 7114, 7115, 7116, 7117, 7118, 7119, 7120
7121, 7122, 7123, 7124, 7125, 7126, 7127, 7128, 7129, 7130, 7131, 7132, 7133, 7134, 7135, 7136
7137, 7138, 7139, 7140, 7141, 7142, 7143, 7144, 7145, 7146, 7147, 7148, 7149, 7150, 7151, 7152
7153, 7154, 7155, 7156, 7157, 7158, 7159, 7160, 7161, 7162, 7163, 7164, 7165, 7166, 7167, 7168
7169, 7170, 7171, 7172, 7173, 7174, 7175, 7176, 7177, 7178, 7179, 7180, 7181, 7182, 7183, 7184
7185, 7186, 7187, 7188, 7189, 7190, 7191, 7192, 7193, 7194, 7195, 7196, 7197, 7198, 7199, 7200
7201, 7202, 7203, 7204, 7205, 7206, 7207, 7208, 7209, 7210, 7211, 7212, 7213, 7214, 7215, 7216
7217, 7218, 7219, 7220, 7221, 7222, 7223, 7224, 7225, 7226, 7227, 7228, 7229, 7230, 7231, 7232
7233, 7234, 7235, 7236, 7237, 7238, 7239, 7240, 7241, 7242, 7243, 7244, 7245, 7246, 7247, 7248
7249, 7250, 7251, 7252, 7253, 7254, 7255, 7256, 7257, 7258, 7259, 7260, 7261, 7262, 7263, 7264
** ... 89 like lines cut
*Nset, nset=LAYER6_MAT0, generate
  9136,  12789,      1
*Elset, elset=LAYER6_MAT0
8681, 8682, 8683, 8684, 8685, 8686, 8687, 8688, 8689, 8690, 8691, 8692, 8693, 8694, 8695, 8696
8697, 8698, 8699, 8700, 8701, 8702, 8703, 8704, 8705, 8706, 8707, 8708, 8709, 8710, 8711, 8712
8713, 8714, 8715, 8716, 8717, 8718, 8719, 8720, 8721, 8722, 8723, 8724, 8725, 8726, 8727, 8728
8729, 8730, 8731, 8732, 8733, 8734, 8735, 8736, 8737, 8738, 8739, 8740, 8741, 8742, 8743, 8744
8745, 8746, 8747, 8748, 8749, 8750, 8751, 8752, 8753, 8754, 8755, 8756, 8757, 8758, 8759, 8760
8761, 8762, 8763, 8764, 8765, 8766, 8767, 8768, 8769, 8770, 8771, 8772, 8773, 8774, 8775, 8776
8777, 8778, 8779, 8780, 8781, 8782, 8783, 8784, 8785, 8786, 8787, 8788, 8789, 8790, 8791, 8792
8793, 8794, 8795, 8796, 8797, 8798, 8799, 8800, 8801, 8802, 8803, 8804, 8805, 8806, 8807, 8808
8809, 8810, 8811, 8812, 8813, 8814, 8815, 8816, 8817, 8818, 8819, 8820, 8821, 8822, 8823, 8824
8825, 8826, 8827, 8828, 8829, 8830, 8831, 8832, 8833, 8834, 8835, 8836, 8837, 8838, 8839, 8840
8841, 8842, 8843, 8844, 8845, 8846, 8847, 8848, 8849, 8850, 8851, 8852, 8853, 8854, 8855, 8856
8857, 8858, 8859, 8860, 8861, 8862, 8863, 8864, 8865, 8866, 8867, 8868, 8869, 8870, 8871, 8872
8873, 8874, 8875, 8876, 8877, 8878, 8879, 8880, 8881, 8882, 8883, 8884, 8885, 8886, 8887, 8888
8889, 8890, 8891, 8892, 8893, 8894, 8895, 8896, 8897, 8898, 8899, 8900, 8901, 8902, 8903, 8904
8905, 8906, 8907, 8908, 8909, 8910, 8911, 8912, 8913, 8914, 8915, 8916, 8917, 8918, 8919, 8920
8921, 8922, 8923, 8924, 8925, 8926, 8927, 8928, 8929, 8930, 8931, 8932, 8933, 8934, 8935, 8936
8937, 8938, 8939, 8940, 8941, 8942, 8943, 8944, 8945, 8946, 8947, 8948, 8949, 8950, 8951, 8952
8953, 8954, 8955, 8956, 8957, 8958, 8959, 8960, 8961, 8962, 8963, 8964, 8965, 8966, 8967, 8968
8969, 8970, 8971, 8972, 8973, 8974, 8975, 8976, 8977, 8978, 8979, 8980, 8981, 8982, 8983, 8984
8985, 8986, 8987, 8988, 8989, 8990, 8991, 8992, 8993, 8994, 8995, 8996, 8997, 8998, 8999, 9000
** ... 89 like lines cut
*Nset, nset=LAYER7_MAT-45, generate
 10963,  14616,      1
*Elset, elset=LAYER7_MAT-45
10417, 10418, 10419, 10420, 10421, 10422, 10423, 10424, 10425, 10426, 10427, 10428, 10429, 10430, 10431, 10432
10433, 10434, 10435, 10436, 10437, 10438, 10439, 10440, 10441, 10442, 10443, 10444, 10445, 10446, 10447, 10448
10449, 10450, 10451, 10452, 10453, 10454, 10455, 10456, 10457, 10458, 10459, 10460, 10461, 10462, 10463, 10464
10465, 10466, 10467, 10468, 10469, 10470, 10471, 10472, 10473, 10474, 10475, 10476, 10477, 10478, 10479, 10480
10481, 10482, 10483, 10484, 10485, 10486, 10487, 10488, 10489, 10490, 10491, 10492, 10493, 10494, 10495, 10496
10497, 10498, 10499, 10500, 10501, 10502, 10503, 10504, 10505, 10506, 10507, 10508, 10509, 10510, 10511, 10512
10513, 10514, 10515, 10516, 10517, 10518, 10519, 10520, 10521, 10522, 10523, 10524, 10525, 10526, 10527, 10528
10529, 10530, 10531, 10532, 10533, 10534, 10535, 10536, 10537, 10538, 10539, 10540, 10541, 10542, 10543, 10544
10545, 10546, 10547, 10548, 10549, 10550, 10551, 10552, 10553, 10554, 10555, 10556, 10557, 10558, 10559, 10560
10561, 10562, 10563, 10564, 10565, 10566, 10567, 10568, 10569, 10570, 10571, 10572, 10573, 10574, 10575, 10576
10577, 10578, 10579, 10580, 10581, 10582, 10583, 10584, 10585, 10586, 10587, 10588, 10589, 10590, 10591, 10592
10593, 10594, 10595, 10596, 10597, 10598, 10599, 10600, 10601, 10602, 10603, 10604, 10605, 10606, 10607, 10608
10609, 10610, 10611, 10612, 10613, 10614, 10615, 10616, 10617, 10618, 10619, 10620, 10621, 10622, 10623, 10624
10625, 10626, 10627, 10628, 10629, 10630, 10631, 10632, 10633, 10634, 10635, 10636, 10637, 10638, 10639, 10640
10641, 10642, 10643, 10644, 10645, 10646, 10647, 10648, 10649, 10650, 10651, 10652, 10653, 10654, 10655, 10656
10657, 10658, 10659, 10660, 10661, 10662, 10663, 10664, 10665, 10666, 10667, 10668, 10669, 10670, 10671, 10672
10673, 10674, 10675, 10676, 10677, 10678, 10679, 10680, 10681, 10682, 10683, 10684, 10685, 10686, 10687, 10688
10689, 10690, 10691, 10692, 10693, 10694, 10695, 10696, 10697, 10698, 10699, 10700, 10701, 10702, 10703, 10704
10705, 10706, 10707, 10708, 10709, 10710, 10711, 10712, 10713, 10714, 10715, 10716, 10717, 10718, 10719, 10720
10721, 10722, 10723, 10724, 10725, 10726, 10727, 10728, 10729, 10730, 10731, 10732, 10733, 10734, 10735, 10736
** ... 89 like lines cut
*Nset, nset=LAYER8_MAT90, generate
 12790,  16443,      1
*Elset, elset=LAYER8_MAT90
12153, 12154, 12155, 12156, 12157, 12158, 12159, 12160, 12161, 12162, 12163, 12164, 12165, 12166, 12167, 12168
12169, 12170, 12171, 12172, 12173, 12174, 12175, 12176, 12177, 12178, 12179, 12180, 12181, 12182, 12183, 12184
12185, 12186, 12187, 12188, 12189, 12190, 12191, 12192, 12193, 12194, 12195, 12196, 12197, 12198, 12199, 12200
12201, 12202, 12203, 12204, 12205, 12206, 12207, 12208, 12209, 12210, 12211, 12212, 12213, 12214, 12215, 12216
12217, 12218, 12219, 12220, 12221, 12222, 12223, 12224, 12225, 12226, 12227, 12228, 12229, 12230, 12231, 12232
12233, 12234, 12235, 12236, 12237, 12238, 12239, 12240, 12241, 12242, 12243, 12244, 12245, 12246, 12247, 12248
12249, 12250, 12251, 12252, 12253, 12254, 12255, 12256, 12257, 12258, 12259, 12260, 12261, 12262, 12263, 12264
12265, 12266, 12267, 12268, 12269, 12270, 12271, 12272, 12273, 12274, 12275, 12276, 12277, 12278, 12279, 12280
12281, 12282, 12283, 12284, 12285, 12286, 12287, 12288, 12289, 12290, 12291, 12292, 12293, 12294, 12295, 12296
12297, 12298, 12299, 12300, 12301, 12302, 12303, 12304, 12305, 12306, 12307, 12308, 12309, 12310, 12311, 12312
12313, 12314, 12315, 12316, 12317, 12318, 12319, 12320, 12321, 12322, 12323, 12324, 12325, 12326, 12327, 12328
12329, 12330, 12331, 12332, 12333, 12334, 12335, 12336, 12337, 12338, 12339, 12340, 12341, 12342, 12343, 12344
12345, 12346, 12347, 12348, 12349, 12350, 12351, 12352, 12353, 12354, 12355, 12356, 12357, 12358, 12359, 12360
12361, 12362, 12363, 12364, 12365, 12366, 12367, 12368, 12369, 12370, 12371, 12372, 12373, 12374, 12375, 12376
12377, 12378, 12379, 12380, 12381, 12382, 12383, 12384, 12385, 12386, 12387, 12388, 12389, 12390, 12391, 12392
12393, 12394, 12395, 12396, 12397, 12398, 12399, 12400, 12401, 12402, 12403, 12404, 12405, 12406, 12407, 12408
12409, 12410, 12411, 12412, 12413, 12414, 12415, 12416, 12417, 12418, 12419, 12420, 12421, 12422, 12423, 12424
12425, 12426, 12427, 12428, 12429, 12430, 12431, 12432, 12433, 12434, 12435, 12436, 12437, 12438, 12439, 12440
12441, 12442, 12443, 12444, 12445, 12446, 12447, 12448, 12449, 12450, 12451, 12452, 12453, 12454, 12455, 12456
12457, 12458, 12459, 12460, 12461, 12462, 12463, 12464, 12465, 12466, 12467, 12468, 12469, 12470, 12471, 12472
** ... 89 like lines cut
*Nset, nset=LAYER9_MAT45, generate
 14617,  18270,      1
*Elset, elset=LAYER9_MAT45
13889, 13890, 13891, 13892, 13893, 13894, 13895, 13896, 13897, 13898, 13899, 13900, 13901, 13902, 13903, 13904
13905, 13906, 13907, 13908, 13909, 13910, 13911, 13912, 13913, 13914, 13915, 13916, 13917, 13918, 13919, 13920
13921, 13922, 13923, 13924, 13925, 13926, 13927, 13928, 13929, 13930, 13931, 13932, 13933, 13934, 13935, 13936
13937, 13938, 13939, 13940, 13941, 13942, 13943, 13944, 13945, 13946, 13947, 13948, 13949, 13950, 13951, 13952
13953, 13954, 13955, 13956, 13957, 13958, 13959, 13960, 13961, 13962, 13963, 13964, 13965, 13966, 13967, 13968
13969, 13970, 13971, 13972, 13973, 13974, 13975, 13976, 13977, 13978, 13979, 13980, 13981, 13982, 13983, 13984
13985, 13986, 13987, 13988, 13989, 13990, 13991, 13992, 13993, 13994, 13995, 13996, 13997, 13998, 13999, 14000
14001, 14002, 14003, 14004, 14005, 14006, 14007, 14008, 14009, 14010, 14011, 14012, 14013, 14014, 14015, 14016
14017, 14018, 14019, 14020, 14021, 14022, 14023, 14024, 14025, 14026, 14027, 14028, 14029, 14030, 14031, 14032
14033, 14034, 14035, 14036, 14037, 14038, 14039, 14040, 14041, 14042, 14043, 14044, 14045, 14046, 14047, 14048
14049, 14050, 14051, 14052, 14053, 14054, 14055, 14056, 14057, 14058, 14059, 14060, 14061, 14062, 14063, 14064
14065, 14066, 14067, 14068, 14069, 14070, 14071, 14072, 14073, 14074, 14075, 14076, 14077, 14078, 14079, 14080
14081, 14082, 14083, 14084, 14085, 14086, 14087, 14088, 14089, 14090, 14091, 14092, 14093, 14094, 14095, 14096
14097, 14098, 14099, 14100, 14101, 14102, 14103, 14104, 14105, 14106, 14107, 14108, 14109, 14110, 14111, 14112
14113, 14114, 14115, 14116, 14117, 14118, 14119, 14120, 14121, 14122, 14123, 14124, 14125, 14126, 14127, 14128
14129, 14130, 14131, 14132, 14133, 14134, 14135, 14136, 14137, 14138, 14139, 14140, 14141, 14142, 14143, 14144
14145, 14146, 14147, 14148, 14149, 14150, 14151, 14152, 14153, 14154, 14155, 14156, 14157, 14158, 14159, 14160
14161, 14162, 14163, 14164, 14165, 14166, 14167, 14168, 14169, 14170, 14171, 14172, 14173, 14174, 14175, 14176
14177, 14178, 14179, 14180, 14181, 14182, 14183, 14184, 14185, 14186, 14187, 14188, 14189, 14190, 14191, 14192
14193, 14194, 14195, 14196, 14197, 14198, 14199, 14200, 14201, 14202, 14203, 14204, 14205, 14206, 14207, 14208
** ... 89 like lines cut
*Nset, nset=LAYER10_MAT0, generate
 16444,  20097,      1
*Elset, elset=LAYER10_MAT0
15625, 15626, 15627, 15628, 15629, 15630, 15631, 15632, 15633, 15634, 15635, 15636, 15637, 15638, 15639, 15640
15641, 15642, 15643, 15644, 15645, 15646, 15647, 15648, 15649, 15650, 15651, 15652, 15653, 15654, 15655, 15656
15657, 15658, 15659, 15660, 15661, 15662, 15663, 15664, 15665, 15666, 15667, 15668, 15669, 15670, 15671, 15672
15673, 15674, 15675, 15676, 15677, 15678, 15679, 15680, 15681, 15682, 15683, 15684, 15685, 15686, 15687, 15688
15689, 15690, 15691, 15692, 15693, 15694, 15695, 15696, 15697, 15698, 15699, 15700, 15701, 15702, 15703, 15704
15705, 15706, 15707, 15708, 15709, 15710, 15711, 15712, 15713, 15714, 15715, 15716, 15717, 15718, 15719, 15720
15721, 15722, 15723, 15724, 15725, 15726, 15727, 15728, 15729, 15730, 15731, 15732, 15733, 15734, 15735, 15736
15737, 15738, 15739, 15740, 15741, 15742, 15743, 15744, 15745, 15746, 15747, 15748, 15749, 15750, 15751, 15752
15753, 15754, 15755, 15756, 15757, 15758, 15759, 15760, 15761, 15762, 15763, 15764, 15765, 15766, 15767, 15768
15769, 15770, 15771, 15772, 15773, 15774, 15775, 15776, 15777, 15778, 15779, 15780, 15781, 15782, 15783, 15784
15785, 15786, 15787, 15788, 15789, 15790, 15791, 15792, 15793, 15794, 15795, 15796, 15797, 15798, 15799, 15800
15801, 15802, 15803, 15804, 15805, 15806, 15807, 15808, 15809, 15810, 15811, 15812, 15813, 15814, 15815, 15816
15817, 15818, 15819, 15820, 15821, 15822, 15823, 15824, 15825, 15826, 15827, 15828, 15829, 15830, 15831, 15832
15833, 15834, 15835, 15836, 15837, 15838, 15839, 15840, 15841, 15842, 15843, 15844, 15845, 15846, 15847, 15848
15849, 15850, 15851, 15852, 15853, 15854, 15855, 15856, 15857, 15858, 15859, 15860, 15861, 15862, 15863, 15864
15865, 15866, 15867, 15868, 15869, 15870, 15871, 15872, 15873, 15874, 15875, 15876, 15877, 15878, 15879, 15880
15881, 15882, 15883, 15884, 15885, 15886, 15887, 15888, 15889, 15890, 15891, 15892, 15893, 15894, 15895, 15896
15897, 15898, 15899, 15900, 15901, 15902, 15903, 15904, 15905, 15906, 15907, 15908, 15909, 15910, 15911, 15912
15913, 15914, 15915, 15916, 15917, 15918, 15919, 15920, 15921, 15922, 15923, 15924, 15925, 15926, 15927, 15928
15929, 15930, 15931, 15932, 15933, 15934, 15935, 15936, 15937, 15938, 15939, 15940, 15941, 15942, 15943, 15944
** ... 89 like lines cut
*Nset, nset=FOAMCORE_CENTER, generate
 18271,  21924,      1
*Elset, elset=FOAMCORE_CENTER
17361, 17362, 17363, 17364, 17365, 17366, 17367, 17368, 17369, 17370, 17371, 17372, 17373, 17374, 17375, 17376
17377, 17378, 17379, 17380, 17381, 17382, 17383, 17384, 17385, 17386, 17387, 17388, 17389, 17390, 17391, 17392
17393, 17394, 17395, 17396, 17397, 17398, 17399, 17400, 17401, 17402, 17403, 17404, 17405, 17406, 17407, 17408
17409, 17410, 17411, 17412, 17413, 17414, 17415, 17416, 17417, 17418, 17419, 17420, 17421, 17422, 17423, 17424
17425, 17426, 17427, 17428, 17429, 17430, 17431, 17432, 17433, 17434, 17435, 17436, 17437, 17438, 17439, 17440
17441, 17442, 17443, 17444, 17445, 17446, 17447, 17448, 17449, 17450, 17451, 17452, 17453, 17454, 17455, 17456
17457, 17458, 17459, 17460, 17461, 17462, 17463, 17464, 17465, 17466, 17467, 17468, 17469, 17470, 17471, 17472
17473, 17474, 17475, 17476, 17477, 17478, 17479, 17480, 17481, 17482, 17483, 17484, 17485, 17486, 17487, 17488
17489, 17490, 17491, 17492, 17493, 17494, 17495, 17496, 17497, 17498, 17499, 17500, 17501, 17502, 17503, 17504
17505, 17506, 17507, 17508, 17509, 17510, 17511, 17512, 17513, 17514, 17515, 17516, 17517, 17518, 17519, 17520
17521, 17522, 17523, 17524, 17525, 17526, 17527, 17528, 17529, 17530, 17531, 17532, 17533, 17534, 17535, 17536
17537, 17538, 17539, 17540, 17541, 17542, 17543, 17544, 17545, 17546, 17547, 17548, 17549, 17550, 17551, 17552
17553, 17554, 17555, 17556, 17557, 17558, 17559, 17560, 17561, 17562, 17563, 17564, 17565, 17566, 17567, 17568
17569, 17570, 17571, 17572, 17573, 17574, 17575, 17576, 17577, 17578, 17579, 17580, 17581, 17582, 17583, 17584
17585, 17586, 17587, 17588, 17589, 17590, 17591, 17592, 17593, 17594, 17595, 17596, 17597, 17598, 17599, 17600
17601, 17602, 17603, 17604, 17605, 17606, 17607, 17608, 17609, 17610, 17611, 17612, 17613, 17614, 17615, 17616
17617, 17618, 17619, 17620, 17621, 17622, 17623, 17624, 17625, 17626, 17627, 17628, 17629, 17630, 17631, 17632
17633, 17634, 17635, 17636, 17637, 17638, 17639, 17640, 17641, 17642, 17643, 17644, 17645, 17646, 17647, 17648
17649, 17650, 17651, 17652, 17653, 17654, 17655, 17656, 17657, 17658, 17659, 17660, 17661, 17662, 17663, 17664
17665, 17666, 17667, 17668, 17669, 17670, 17671, 17672, 17673, 17674, 17675, 17676, 17677, 17678, 17679, 17680
** ... 89 like lines cut
*Nset, nset=LAYER11_MAT0, generate
 20098,  23751,      1
*Elset, elset=LAYER11_MAT0
19097, 19098, 19099, 19100, 19101, 19102, 19103, 19104, 19105, 19106, 19107, 19108, 19109, 19110, 19111, 19112
19113, 19114, 19115, 19116, 19117, 19118, 19119, 19120, 19121, 19122, 19123, 19124, 19125, 19126, 19127, 19128
19129, 19130, 19131, 19132, 19133, 19134, 19135, 19136, 19137, 19138, 19139, 19140, 19141, 19142, 19143, 19144
19145, 19146, 19147, 19148, 19149, 19150, 19151, 19152, 19153, 19154, 19155, 19156, 19157, 19158, 19159, 19160
19161, 19162, 19163, 19164, 19165, 19166, 19167, 19168, 19169, 19170, 19171, 19172, 19173, 19174, 19175, 19176
19177, 19178, 19179, 19180, 19181, 19182, 19183, 19184, 19185, 19186, 19187, 19188, 19189, 19190, 19191, 19192
19193, 19194, 19195, 19196, 19197, 19198, 19199, 19200, 19201, 19202, 19203, 19204, 19205, 19206, 19207, 19208
19209, 19210, 19211, 19212, 19213, 19214, 19215, 19216, 19217, 19218, 19219, 19220, 19221, 19222, 19223, 19224
19225, 19226, 19227, 19228, 19229, 19230, 19231, 19232, 19233, 19234, 19235, 19236, 19237, 19238, 19239, 19240
19241, 19242, 19243, 19244, 19245, 19246, 19247, 19248, 19249, 19250, 19251, 19252, 19253, 19254, 19255, 19256
19257, 19258, 19259, 19260, 19261, 19262, 19263, 19264, 19265, 19266, 19267, 19268, 19269, 19270, 19271, 19272
19273, 19274, 19275, 19276, 19277, 19278, 19279, 19280, 19281, 19282, 19283, 19284, 19285, 19286, 19287, 19288
19289, 19290, 19291, 19292, 19293, 19294, 19295, 19296, 19297, 19298, 19299, 19300, 19301, 19302, 19303, 19304
19305, 19306, 19307, 19308, 19309, 19310, 19311, 19312, 19313, 19314, 19315, 19316, 19317, 19318, 19319, 19320
19321, 19322, 19323, 19324, 19325, 19326, 19327, 19328, 19329, 19330, 19331, 19332, 19333, 19334, 19335, 19336
19337, 19338, 19339, 19340, 19341, 19342, 19343, 19344, 19345, 19346, 19347, 19348, 19349, 19350, 19351, 19352
19353, 19354, 19355, 19356, 19357, 19358, 19359, 19360, 19361, 19362, 19363, 19364, 19365, 19366, 19367, 19368
19369, 19370, 19371, 19372, 19373, 19374, 19375, 19376, 19377, 19378, 19379, 19380, 19381, 19382, 19383, 19384
19385, 19386, 19387, 19388, 19389, 19390, 19391, 19392, 19393, 19394, 19395, 19396, 19397, 19398, 19399, 19400
19401, 19402, 19403, 19404, 19405, 19406, 19407, 19408, 19409, 19410, 19411, 19412, 19413, 19414, 19415, 19416
** ... 89 like lines cut
*Nset, nset=LAYER12_MAT45, generate
 21925,  25578,      1
*Elset, elset=LAYER12_MAT45
20833, 20834, 20835, 20836, 20837, 20838, 20839, 20840, 20841, 20842, 20843, 20844, 20845, 20846, 20847, 20848
20849, 20850, 20851, 20852, 20853, 20854, 20855, 20856, 20857, 20858, 20859, 20860, 20861, 20862, 20863, 20864
20865, 20866, 20867, 20868, 20869, 20870, 20871, 20872, 20873, 20874, 20875, 20876, 20877, 20878, 20879, 20880
20881, 20882, 20883, 20884, 20885, 20886, 20887, 20888, 20889, 20890, 20891, 20892, 20893, 20894, 20895, 20896
20897, 20898, 20899, 20900, 20901, 20902, 20903, 20904, 20905, 20906, 20907, 20908, 20909, 20910, 20911, 20912
20913, 20914, 20915, 20916, 20917, 20918, 20919, 20920, 20921, 20922, 20923, 20924, 20925, 20926, 20927, 20928
20929, 20930, 20931, 20932, 20933, 20934, 20935, 20936, 20937, 20938, 20939, 20940, 20941, 20942, 20943, 20944
20945, 20946, 20947, 20948, 20949, 20950, 20951, 20952, 20953, 20954, 20955, 20956, 20957, 20958, 20959, 20960
20961, 20962, 20963, 20964, 20965, 20966, 20967, 20968, 20969, 20970, 20971, 20972, 20973, 20974, 20975, 20976
20977, 20978, 20979, 20980, 20981, 20982, 20983, 20984, 20985, 20986, 20987, 20988, 20989, 20990, 20991, 20992
20993, 20994, 20995, 20996, 20997, 20998, 20999, 21000, 21001, 21002, 21003, 21004, 21005, 21006, 21007, 21008
21009, 21010, 21011, 21012, 21013, 21014, 21015, 21016, 21017, 21018, 21019, 21020, 21021, 21022, 21023, 21024
21025, 21026, 21027, 21028, 21029, 21030, 21031, 21032, 21033, 21034, 21035, 21036, 21037, 21038, 21039, 21040
21041, 21042, 21043, 21044, 21045, 21046, 21047, 21048, 21049, 21050, 21051, 21052, 21053, 21054, 21055, 21056
21057, 21058, 21059, 21060, 21061, 21062, 21063, 21064, 21065, 21066, 21067, 21068, 21069, 21070, 21071, 21072
21073, 21074, 21075, 21076, 21077, 21078, 21079, 21080, 21081, 21082, 21083, 21084, 21085, 21086, 21087, 21088
21089, 21090, 21091, 21092, 21093, 21094, 21095, 21096, 21097, 21098, 21099, 21100, 21101, 21102, 21103, 21104
21105, 21106, 21107, 21108, 21109, 21110, 21111, 21112, 21113, 21114, 21115, 21116, 21117, 21121, 21122, 21123
21124, 21125, 21126, 21127, 21128, 21129, 21130, 21131, 21132, 21133, 21134, 21135, 21136, 21137, 21138, 21139
21140, 21141, 21142, 21143, 21144, 21145, 21149, 21150, 21151, 21152, 21153, 21154, 21155, 21156, 21157, 21158
** ... 88 like lines cut
*Nset, nset=LAYER13_MAT90, generate
 23752,  27405,      1
*Elset, elset=LAYER13_MAT90
22569, 22570, 22571, 22572, 22573, 22574, 22575, 22576, 22577, 22578, 22579, 22580, 22581, 22582, 22583, 22584
22585, 22586, 22587, 22588, 22589, 22590, 22591, 22592, 22593, 22594, 22595, 22596, 22597, 22598, 22599, 22600
22601, 22602, 22603, 22604, 22605, 22606, 22607, 22608, 22609, 22610, 22611, 22612, 22613, 22614, 22615, 22616
22617, 22618, 22619, 22620, 22621, 22622, 22623, 22624, 22625, 22626, 22627, 22628, 22629, 22630, 22631, 22632
22633, 22634, 22635, 22636, 22637, 22638, 22639, 22640, 22641, 22642, 22643, 22644, 22645, 22646, 22647, 22648
22649, 22650, 22651, 22652, 22653, 22654, 22655, 22656, 22657, 22658, 22659, 22660, 22661, 22662, 22663, 22664
22665, 22666, 22667, 22668, 22669, 22670, 22671, 22672, 22673, 22674, 22675, 22676, 22677, 22678, 22679, 22680
22681, 22682, 22683, 22684, 22685, 22686, 22687, 22688, 22689, 22690, 22691, 22692, 22693, 22694, 22695, 22696
22697, 22698, 22699, 22700, 22701, 22702, 22703, 22704, 22705, 22706, 22707, 22708, 22709, 22710, 22711, 22712
22713, 22714, 22715, 22716, 22717, 22718, 22719, 22720, 22721, 22722, 22723, 22724, 22725, 22726, 22727, 22728
22729, 22730, 22731, 22732, 22733, 22734, 22735, 22736, 22737, 22738, 22739, 22740, 22741, 22742, 22743, 22744
22745, 22746, 22747, 22748, 22749, 22750, 22751, 22752, 22753, 22754, 22755, 22756, 22757, 22758, 22759, 22760
22761, 22762, 22763, 22764, 22765, 22766, 22767, 22768, 22769, 22770, 22771, 22772, 22773, 22774, 22775, 22776
22777, 22778, 22779, 22780, 22781, 22782, 22783, 22784, 22785, 22786, 22787, 22788, 22789, 22790, 22791, 22792
22793, 22794, 22795, 22796, 22797, 22798, 22799, 22800, 22801, 22802, 22803, 22804, 22805, 22806, 22807, 22808
22809, 22810, 22811, 22812, 22813, 22814, 22815, 22816, 22817, 22818, 22819, 22820, 22821, 22822, 22823, 22824
22825, 22826, 22827, 22828, 22829, 22830, 22831, 22832, 22833, 22834, 22835, 22836, 22837, 22838, 22839, 22840
22841, 22842, 22843, 22844, 22845, 22846, 22847, 22848, 22849, 22850, 22851, 22852, 22853, 22854, 22855, 22856
22857, 22858, 22859, 22860, 22861, 22862, 22863, 22864, 22865, 22866, 22867, 22868, 22869, 22870, 22871, 22872
22873, 22874, 22875, 22876, 22877, 22878, 22879, 22880, 22881, 22882, 22883, 22884, 22885, 22886, 22887, 22888
** ... 89 like lines cut
*Nset, nset=LAYER14_MAT-45, generate
 25579,  29232,      1
*Elset, elset=LAYER14_MAT-45
24305, 24306, 24307, 24308, 24309, 24310, 24311, 24312, 24313, 24314, 24315, 24316, 24317, 24318, 24319, 24320
24321, 24322, 24323, 24324, 24325, 24326, 24327, 24328, 24329, 24330, 24331, 24332, 24333, 24334, 24335, 24336
24337, 24338, 24339, 24340, 24341, 24342, 24343, 24344, 24345, 24346, 24347, 24348, 24349, 24350, 24351, 24352
24353, 24354, 24355, 24356, 24357, 24358, 24359, 24360, 24361, 24362, 24363, 24364, 24365, 24366, 24367, 24368
24369, 24370, 24371, 24372, 24373, 24374, 24375, 24376, 24377, 24378, 24379, 24380, 24381, 24382, 24383, 24384
24385, 24386, 24387, 24388, 24389, 24390, 24391, 24392, 24393, 24394, 24395, 24396, 24397, 24398, 24399, 24400
24401, 24402, 24403, 24404, 24405, 24406, 24407, 24408, 24409, 24410, 24411, 24412, 24413, 24414, 24415, 24416
24417, 24418, 24419, 24420, 24421, 24422, 24423, 24424, 24425, 24426, 24427, 24428, 24429, 24430, 24431, 24432
24433, 24434, 24435, 24436, 24437, 24438, 24439, 24440, 24441, 24442, 24443, 24444, 24445, 24446, 24447, 24448
24449, 24450, 24451, 24452, 24453, 24454, 24455, 24456, 24457, 24458, 24459, 24460, 24461, 24462, 24463, 24464
24465, 24466, 24467, 24468, 24469, 24470, 24471, 24472, 24473, 24474, 24475, 24476, 24477, 24478, 24479, 24480
24481, 24482, 24483, 24484, 24485, 24486, 24487, 24488, 24489, 24490, 24491, 24492, 24493, 24494, 24495, 24496
24497, 24498, 24499, 24500, 24501, 24502, 24503, 24504, 24505, 24506, 24507, 24508, 24509, 24510, 24511, 24512
24513, 24514, 24515, 24516, 24517, 24518, 24519, 24520, 24521, 24522, 24523, 24524, 24525, 24526, 24527, 24528
24529, 24530, 24531, 24532, 24533, 24534, 24535, 24536, 24537, 24538, 24539, 24540, 24541, 24542, 24543, 24544
24545, 24546, 24547, 24548, 24549, 24550, 24551, 24552, 24553, 24554, 24555, 24556, 24557, 24558, 24559, 24560
24561, 24562, 24563, 24564, 24565, 24566, 24567, 24568, 24569, 24570, 24571, 24572, 24573, 24574, 24575, 24576
24577, 24578, 24579, 24580, 24581, 24582, 24583, 24584, 24585, 24586, 24587, 24588, 24589, 24590, 24591, 24592
24593, 24594, 24595, 24596, 24597, 24598, 24599, 24600, 24601, 24602, 24603, 24604, 24605, 24606, 24607, 24608
24609, 24610, 24611, 24612, 24613, 24614, 24615, 24616, 24617, 24618, 24619, 24620, 24621, 24622, 24623, 24624
** ... 89 like lines cut
*Nset, nset=LAYER15_MAT0, generate
 27406,  31059,      1
*Elset, elset=LAYER15_MAT0
26041, 26042, 26043, 26044, 26045, 26046, 26047, 26048, 26049, 26050, 26051, 26052, 26053, 26054, 26055, 26056
26057, 26058, 26059, 26060, 26061, 26062, 26063, 26064, 26065, 26066, 26067, 26068, 26069, 26070, 26071, 26072
26073, 26074, 26075, 26076, 26077, 26078, 26079, 26080, 26081, 26082, 26083, 26084, 26085, 26086, 26087, 26088
26089, 26090, 26091, 26092, 26093, 26094, 26095, 26096, 26097, 26098, 26099, 26100, 26101, 26102, 26103, 26104
26105, 26106, 26107, 26108, 26109, 26110, 26111, 26112, 26113, 26114, 26115, 26116, 26117, 26118, 26119, 26120
26121, 26122, 26123, 26124, 26125, 26126, 26127, 26128, 26129, 26130, 26131, 26132, 26133, 26134, 26135, 26136
26137, 26138, 26139, 26140, 26141, 26142, 26143, 26144, 26145, 26146, 26147, 26148, 26149, 26150, 26151, 26152
26153, 26154, 26155, 26156, 26157, 26158, 26159, 26160, 26161, 26162, 26163, 26164, 26165, 26166, 26167, 26168
26169, 26170, 26171, 26172, 26173, 26174, 26175, 26176, 26177, 26178, 26179, 26180, 26181, 26182, 26183, 26184
26185, 26186, 26187, 26188, 26189, 26190, 26191, 26192, 26193, 26194, 26195, 26196, 26197, 26198, 26199, 26200
26201, 26202, 26203, 26204, 26205, 26206, 26207, 26208, 26209, 26210, 26211, 26212, 26213, 26214, 26215, 26216
26217, 26218, 26219, 26220, 26221, 26222, 26223, 26224, 26225, 26226, 26227, 26228, 26229, 26230, 26231, 26232
26233, 26234, 26235, 26236, 26237, 26238, 26239, 26240, 26241, 26242, 26243, 26244, 26245, 26246, 26247, 26248
26249, 26250, 26251, 26252, 26253, 26254, 26255, 26256, 26257, 26258, 26259, 26260, 26261, 26262, 26263, 26264
26265, 26266, 26267, 26268, 26269, 26270, 26271, 26272, 26273, 26274, 26275, 26276, 26277, 26278, 26279, 26280
26281, 26282, 26283, 26284, 26285, 26286, 26287, 26288, 26289, 26290, 26291, 26292, 26293, 26294, 26295, 26296
26297, 26298, 26299, 26300, 26301, 26302, 26303, 26304, 26305, 26306, 26307, 26308, 26309, 26310, 26311, 26312
26313, 26314, 26315, 26316, 26317, 26318, 26319, 26320, 26321, 26322, 26323, 26324, 26325, 26326, 26327, 26328
26329, 26330, 26331, 26332, 26333, 26334, 26335, 26336, 26337, 26338, 26339, 26340, 26341, 26342, 26343, 26344
26345, 26346, 26347, 26348, 26349, 26350, 26351, 26352, 26353, 26354, 26355, 26356, 26357, 26358, 26359, 26360
** ... 89 like lines cut
*Nset, nset=LAYER16_MAT0, generate
 29233,  32886,      1
*Elset, elset=LAYER16_MAT0
27777, 27778, 27779, 27780, 27781, 27782, 27783, 27784, 27785, 27786, 27787, 27788, 27789, 27790, 27791, 27792
27793, 27794, 27795, 27796, 27797, 27798, 27799, 27800, 27801, 27802, 27803, 27804, 27805, 27806, 27807, 27808
27809, 27810, 27811, 27812, 27813, 27814, 27815, 27816, 27817, 27818, 27819, 27820, 27821, 27822, 27823, 27824
27825, 27826, 27827, 27828, 27829, 27830, 27831, 27832, 27833, 27834, 27835, 27836, 27837, 27838, 27839, 27840
27841, 27842, 27843, 27844, 27845, 27846, 27847, 27848, 27849, 27850, 27851, 27852, 27853, 27854, 27855, 27856
27857, 27858, 27859, 27860, 27861, 27862, 27863, 27864, 27865, 27866, 27867, 27868, 27869, 27870, 27871, 27872
27873, 27874, 27875, 27876, 27877, 27878, 27879, 27880, 27881, 27882, 27883, 27884, 27885, 27886, 27887, 27888
27889, 27890, 27891, 27892, 27893, 27894, 27895, 27896, 27897, 27898, 27899, 27900, 27901, 27902, 27903, 27904
27905, 27906, 27907, 27908, 27909, 27910, 27911, 27912, 27913, 27914, 27915, 27916, 27917, 27918, 27919, 27920
27921, 27922, 27923, 27924, 27925, 27926, 27927, 27928, 27929, 27930, 27931, 27932, 27933, 27934, 27935, 27936
27937, 27938, 27939, 27940, 27941, 27942, 27943, 27944, 27945, 27946, 27947, 27948, 27949, 27950, 27951, 27952
27953, 27954, 27955, 27956, 27957, 27958, 27959, 27960, 27961, 27962, 27963, 27964, 27965, 27966, 27967, 27968
27969, 27970, 27971, 27972, 27973, 27974, 27975, 27976, 27977, 27978, 27979, 27980, 27981, 27982, 27983, 27984
27985, 27986, 27987, 27988, 27989, 27990, 27991, 27992, 27993, 27994, 27995, 27996, 27997, 27998, 27999, 28000
28001, 28002, 28003, 28004, 28005, 28006, 28007, 28008, 28009, 28010, 28011, 28012, 28013, 28014, 28015, 28016
28017, 28018, 28019, 28020, 28021, 28022, 28023, 28024, 28025, 28026, 28027, 28028, 28029, 28030, 28031, 28032
28033, 28034, 28035, 28036, 28037, 28038, 28039, 28040, 28041, 28042, 28043, 28044, 28045, 28046, 28047, 28048
28049, 28050, 28051, 28052, 28053, 28054, 28055, 28056, 28057, 28058, 28059, 28060, 28061, 28062, 28063, 28064
28065, 28066, 28067, 28068, 28069, 28070, 28071, 28072, 28073, 28074, 28075, 28076, 28077, 28078, 28079, 28080
28081, 28082, 28083, 28084, 28085, 28086, 28087, 28088, 28089, 28090, 28091, 28092, 28093, 28094, 28095, 28096
** ... 89 like lines cut
*Nset, nset=LAYER17_MAT-45, generate
 31060,  34713,      1
*Elset, elset=LAYER17_MAT-45
29513, 29514, 29515, 29516, 29517, 29518, 29519, 29520, 29521, 29522, 29523, 29524, 29525, 29526, 29527, 29528
29529, 29530, 29531, 29532, 29533, 29534, 29535, 29536, 29537, 29538, 29539, 29540, 29541, 29542, 29543, 29544
29545, 29546, 29547, 29548, 29549, 29550, 29551, 29552, 29553, 29554, 29555, 29556, 29557, 29558, 29559, 29560
29561, 29562, 29563, 29564, 29565, 29566, 29567, 29568, 29569, 29570, 29571, 29572, 29573, 29574, 29575, 29576
29577, 29578, 29579, 29580, 29581, 29582, 29583, 29584, 29585, 29586, 29587, 29588, 29589, 29590, 29591, 29592
29593, 29594, 29595, 29596, 29597, 29598, 29599, 29600, 29601, 29602, 29603, 29604, 29605, 29606, 29607, 29608
29609, 29610, 29611, 29612, 29613, 29614, 29615, 29616, 29617, 29618, 29619, 29620, 29621, 29622, 29623, 29624
29625, 29626, 29627, 29628, 29629, 29630, 29631, 29632, 29633, 29634, 29635, 29636, 29637, 29638, 29639, 29640
29641, 29642, 29643, 29644, 29645, 29646, 29647, 29648, 29649, 29650, 29651, 29652, 29653, 29654, 29655, 29656
29657, 29658, 29659, 29660, 29661, 29662, 29663, 29664, 29665, 29666, 29667, 29668, 29669, 29670, 29671, 29672
29673, 29674, 29675, 29676, 29677, 29678, 29679, 29680, 29681, 29682, 29683, 29684, 29685, 29686, 29687, 29688
29689, 29690, 29691, 29692, 29693, 29694, 29695, 29696, 29697, 29698, 29699, 29700, 29701, 29702, 29703, 29704
29705, 29706, 29707, 29708, 29709, 29710, 29711, 29712, 29713, 29714, 29715, 29716, 29717, 29718, 29719, 29720
29721, 29722, 29723, 29724, 29725, 29726, 29727, 29728, 29729, 29730, 29731, 29732, 29733, 29734, 29735, 29736
29737, 29738, 29739, 29740, 29741, 29742, 29743, 29744, 29745, 29746, 29747, 29748, 29749, 29750, 29751, 29752
29753, 29754, 29755, 29756, 29757, 29758, 29759, 29760, 29761, 29762, 29763, 29764, 29765, 29766, 29767, 29768
29769, 29770, 29771, 29772, 29773, 29774, 29775, 29776, 29777, 29778, 29779, 29780, 29781, 29782, 29783, 29784
29785, 29786, 29787, 29788, 29789, 29790, 29791, 29792, 29793, 29794, 29795, 29796, 29797, 29798, 29799, 29800
29801, 29802, 29803, 29804, 29805, 29806, 29807, 29808, 29809, 29810, 29811, 29812, 29813, 29814, 29815, 29816
29817, 29818, 29819, 29820, 29821, 29822, 29823, 29824, 29825, 29826, 29827, 29828, 29829, 29830, 29831, 29832
** ... 89 like lines cut
*Nset, nset=LAYER18_MAT90, generate
 32887,  36540,      1
*Elset, elset=LAYER18_MAT90
31249, 31250, 31251, 31252, 31253, 31254, 31255, 31256, 31257, 31258, 31259, 31260, 31261, 31262, 31263, 31264
31265, 31266, 31267, 31268, 31269, 31270, 31271, 31272, 31273, 31274, 31275, 31276, 31277, 31278, 31279, 31280
31281, 31282, 31283, 31284, 31285, 31286, 31287, 31288, 31289, 31290, 31291, 31292, 31293, 31294, 31295, 31296
31297, 31298, 31299, 31300, 31301, 31302, 31303, 31304, 31305, 31306, 31307, 31308, 31309, 31310, 31311, 31312
31313, 31314, 31315, 31316, 31317, 31318, 31319, 31320, 31321, 31322, 31323, 31324, 31325, 31326, 31327, 31328
31329, 31330, 31331, 31332, 31333, 31334, 31335, 31336, 31337, 31338, 31339, 31340, 31341, 31342, 31343, 31344
31345, 31346, 31347, 31348, 31349, 31350, 31351, 31352, 31353, 31354, 31355, 31356, 31357, 31358, 31359, 31360
31361, 31362, 31363, 31364, 31365, 31366, 31367, 31368, 31369, 31370, 31371, 31372, 31373, 31374, 31375, 31376
31377, 31378, 31379, 31380, 31381, 31382, 31383, 31384, 31385, 31386, 31387, 31388, 31389, 31390, 31391, 31392
31393, 31394, 31395, 31396, 31397, 31398, 31399, 31400, 31401, 31402, 31403, 31404, 31405, 31406, 31407, 31408
31409, 31410, 31411, 31412, 31413, 31414, 31415, 31416, 31417, 31418, 31419, 31420, 31421, 31422, 31423, 31424
31425, 31426, 31427, 31428, 31429, 31430, 31431, 31432, 31433, 31434, 31435, 31436, 31437, 31438, 31439, 31440
31441, 31442, 31443, 31444, 31445, 31446, 31447, 31448, 31449, 31450, 31451, 31452, 31453, 31454, 31455, 31456
31457, 31458, 31459, 31460, 31461, 31462, 31463, 31464, 31465, 31466, 31467, 31468, 31469, 31470, 31471, 31472
31473, 31474, 31475, 31476, 31477, 31478, 31479, 31480, 31481, 31482, 31483, 31484, 31485, 31486, 31487, 31488
31489, 31490, 31491, 31492, 31493, 31494, 31495, 31496, 31497, 31498, 31499, 31500, 31501, 31502, 31503, 31504
31505, 31506, 31507, 31508, 31509, 31510, 31511, 31512, 31513, 31514, 31515, 31516, 31517, 31518, 31519, 31520
31521, 31522, 31523, 31524, 31525, 31526, 31527, 31528, 31529, 31530, 31531, 31532, 31533, 31534, 31535, 31536
31537, 31538, 31539, 31540, 31541, 31542, 31543, 31544, 31545, 31546, 31547, 31548, 31549, 31550, 31551, 31552
31553, 31554, 31555, 31556, 31557, 31558, 31559, 31560, 31561, 31562, 31563, 31564, 31565, 31566, 31567, 31568
** ... 89 like lines cut
*Nset, nset=LAYER19_MAT45, generate
 34714,  38367,      1
*Elset, elset=LAYER19_MAT45
32985, 32986, 32987, 32988, 32989, 32990, 32991, 32992, 32993, 32994, 32995, 32996, 32997, 32998, 32999, 33000
33001, 33002, 33003, 33004, 33005, 33006, 33007, 33008, 33009, 33010, 33011, 33012, 33013, 33014, 33015, 33016
33017, 33018, 33019, 33020, 33021, 33022, 33023, 33024, 33025, 33026, 33027, 33028, 33029, 33030, 33031, 33032
33033, 33034, 33035, 33036, 33037, 33038, 33039, 33040, 33041, 33042, 33043, 33044, 33045, 33046, 33047, 33048
33049, 33050, 33051, 33052, 33053, 33054, 33055, 33056, 33057, 33058, 33059, 33060, 33061, 33062, 33063, 33064
33065, 33066, 33067, 33068, 33069, 33070, 33071, 33072, 33073, 33074, 33075, 33076, 33077, 33078, 33079, 33080
33081, 33082, 33083, 33084, 33085, 33086, 33087, 33088, 33089, 33090, 33091, 33092, 33093, 33094, 33095, 33096
33097, 33098, 33099, 33100, 33101, 33102, 33103, 33104, 33105, 33106, 33107, 33108, 33109, 33110, 33111, 33112
33113, 33114, 33115, 33116, 33117, 33118, 33119, 33120, 33121, 33122, 33123, 33124, 33125, 33126, 33127, 33128
33129, 33130, 33131, 33132, 33133, 33134, 33135, 33136, 33137, 33138, 33139, 33140, 33141, 33142, 33143, 33144
33145, 33146, 33147, 33148, 33149, 33150, 33151, 33152, 33153, 33154, 33155, 33156, 33157, 33158, 33159, 33160
33161, 33162, 33163, 33164, 33165, 33166, 33167, 33168, 33169, 33170, 33171, 33172, 33173, 33174, 33175, 33176
33177, 33178, 33179, 33180, 33181, 33182, 33183, 33184, 33185, 33186, 33187, 33188, 33189, 33190, 33191, 33192
33193, 33194, 33195, 33196, 33197, 33198, 33199, 33200, 33201, 33202, 33203, 33204, 33205, 33206, 33207, 33208
33209, 33210, 33211, 33212, 33213, 33214, 33215, 33216, 33217, 33218, 33219, 33220, 33221, 33222, 33223, 33224
33225, 33226, 33227, 33228, 33229, 33230, 33231, 33232, 33233, 33234, 33235, 33236, 33237, 33238, 33239, 33240
33241, 33242, 33243, 33244, 33245, 33246, 33247, 33248, 33249, 33250, 33251, 33252, 33253, 33254, 33255, 33256
33257, 33258, 33259, 33260, 33261, 33262, 33263, 33264, 33265, 33266, 33267, 33268, 33269, 33270, 33271, 33272
33273, 33274, 33275, 33276, 33277, 33278, 33279, 33280, 33281, 33282, 33283, 33284, 33285, 33286, 33287, 33288
33289, 33290, 33291, 33292, 33293, 33294, 33295, 33296, 33297, 33298, 33299, 33300, 33301, 33302, 33303, 33304
** ... 89 like lines cut
*Nset, nset=LAYER20_MAT0, generate
 36541,  40194,      1
*Elset, elset=LAYER20_MAT0
34721, 34722, 34723, 34724, 34725, 34726, 34727, 34728, 34729, 34730, 34731, 34732, 34733, 34734, 34735, 34736
34737, 34738, 34739, 34740, 34741, 34742, 34743, 34744, 34745, 34746, 34747, 34748, 34749, 34750, 34751, 34752
34753, 34754, 34755, 34756, 34757, 34758, 34759, 34760, 34761, 34762, 34763, 34764, 34765, 34766, 34767, 34768
34769, 34770, 34771, 34772, 34773, 34774, 34775, 34776, 34777, 34778, 34779, 34780, 34781, 34782, 34783, 34784
34785, 34786, 34787, 34788, 34789, 34790, 34791, 34792, 34793, 34794, 34795, 34796, 34797, 34798, 34799, 34800
34801, 34802, 34803, 34804, 34805, 34806, 34807, 34808, 34809, 34810, 34811, 34812, 34813, 34814, 34815, 34816
34817, 34818, 34819, 34820, 34821, 34822, 34823, 34824, 34825, 34826, 34827, 34828, 34829, 34830, 34831, 34832
34833, 34834, 34835, 34836, 34837, 34838, 34839, 34840, 34841, 34842, 34843, 34844, 34845, 34846, 34847, 34848
34849, 34850, 34851, 34852, 34853, 34854, 34855, 34856, 34857, 34858, 34859, 34860, 34861, 34862, 34863, 34864
34865, 34866, 34867, 34868, 34869, 34870, 34871, 34872, 34873, 34874, 34875, 34876, 34877, 34878, 34879, 34880
34881, 34882, 34883, 34884, 34885, 34886, 34887, 34888, 34889, 34890, 34891, 34892, 34893, 34894, 34895, 34896
34897, 34898, 34899, 34900, 34901, 34902, 34903, 34904, 34905, 34906, 34907, 34908, 34909, 34910, 34911, 34912
34913, 34914, 34915, 34916, 34917, 34918, 34919, 34920, 34921, 34922, 34923, 34924, 34925, 34926, 34927, 34928
34929, 34930, 34931, 34932, 34933, 34934, 34935, 34936, 34937, 34938, 34939, 34940, 34941, 34942, 34943, 34944
34945, 34946, 34947, 34948, 34949, 34950, 34951, 34952, 34953, 34954, 34955, 34956, 34957, 34958, 34959, 34960
34961, 34962, 34963, 34964, 34965, 34966, 34967, 34968, 34969, 34970, 34971, 34972, 34973, 34974, 34975, 34976
34977, 34978, 34979, 34980, 34981, 34982, 34983, 34984, 34985, 34986, 34987, 34988, 34989, 34990, 34991, 34992
34993, 34994, 34995, 34996, 34997, 34998, 34999, 35000, 35001, 35002, 35003, 35004, 35005, 35006, 35007, 35008
35009, 35010, 35011, 35012, 35013, 35014, 35015, 35016, 35017, 35018, 35019, 35020, 35021, 35022, 35023, 35024
35025, 35026, 35027, 35028, 35029, 35030, 35031, 35032, 35033, 35034, 35035, 35036, 35037, 35038, 35039, 35040
** ... 89 like lines cut
*Elset, elset=_PickedSet47, internal, generate
    1,  1736,     1
*Elset, elset=_PickedSet48, internal, generate
 3473,  5208,     1
*Elset, elset=_PickedSet49, internal, generate
 5209,  6944,     1
*Elset, elset=Defect
21118, 21119, 21120, 21146, 21147, 21148, 21174, 21175, 21176

*Orientation, name=Ori-4, system=CYLINDRICAL
          0.,           0.,           0.,           0.,           0.,           1.
3, 0.
** Section: Section-1-LAYER1_MAT0
*Solid Section, elset=LAYER1_MAT0, orientation=Ori-4, material=CFRP_0DEGREE
,
** Section: Section-2-LAYER2_MAT45
*Solid Section, elset=LAYER2_MAT45, orientation=Ori-4, material=CFRP_45DEGREE
,
** Section: Section-3-LAYER3_MAT90
*Solid Section, elset=LAYER3_MAT90, orientation=Ori-4, material=CFRP_90DEGREE
,
** Section: Section-4-LAYER4_MAT-45
*Solid Section, elset=LAYER4_MAT-45, orientation=Ori-4, material=CFRP_-45DEGREE
,
** Section: Section-5-LAYER5_MAT0
*Solid Section, elset=LAYER5_MAT0, orientation=Ori-4, material=CFRP_0DEGREE
,
** Section: Section-6-LAYER6_MAT0
*Solid Section, elset=LAYER6_MAT0, orientation=Ori-4, material=CFRP_0DEGREE
,
** Section: Section-7-LAYER7_MAT-45
*Solid Section, elset=LAYER7_MAT-45, orientation=Ori-4, material=CFRP_-45DEGREE
,
** Section: Section-8-LAYER8_MAT90
*Solid Section, elset=LAYER8_MAT90, orientation=Ori-4, material=CFRP_90DEGREE
,
** Section: Section-9-LAYER9_MAT45
*Solid Section, elset=LAYER9_MAT45, orientation=Ori-4, material=CFRP_45DEGREE
,
** Section: Section-10-LAYER10_MAT0
*Solid Section, elset=LAYER10_MAT0, orientation=Ori-4, material=CFRP_0DEGREE
,
** Section: Section-11-FOAMCORE_CENTER
*Solid Section, elset=FOAMCORE_CENTER, orientation=Ori-4, material=FOAMCORE
,
** Section: Section-12-LAYER11_MAT0
*Solid Section, elset=LAYER11_MAT0, orientation=Ori-4, material=CFRP_0DEGREE
,
** Section: Section-13-LAYER12_MAT45
*Solid Section, elset=LAYER12_MAT45, orientation=Ori-4, material=CFRP_45DEGREE
,
** Section: Section-14-LAYER13_MAT90
*Solid Section, elset=LAYER13_MAT90, orientation=Ori-4, material=CFRP_90DEGREE
,
** Section: Section-15-LAYER14_MAT-45
*Solid Section, elset=LAYER14_MAT-45, orientation=Ori-4, material=CFRP_-45DEGREE
,
** Section: Section-16-LAYER15_MAT0
*Solid Section, elset=LAYER15_MAT0, orientation=Ori-4, material=CFRP_0DEGREE
,
** Section: Section-17-LAYER16_MAT0
*Solid Section, elset=LAYER16_MAT0, orientation=Ori-4, material=CFRP_0DEGREE
,
** Section: Section-18-LAYER17_MAT-45
*Solid Section, elset=LAYER17_MAT-45, orientation=Ori-4, material=CFRP_-45DEGREE
,
** Section: Section-19-LAYER18_MAT90
*Solid Section, elset=LAYER18_MAT90, orientation=Ori-4, material=CFRP_90DEGREE
,
** Section: Section-20-LAYER19_MAT45
*Solid Section, elset=LAYER19_MAT45, orientation=Ori-4, material=CFRP_45DEGREE
,
** Section: Section-21-LAYER20_MAT0
*Solid Section, elset=LAYER20_MAT0, orientation=Ori-4, material=CFRP_0DEGREE
,
** Section: Defect
*Solid Section, elset=Defect, orientation=Ori-4, material=DEFECT
,
*End Part
**  
**
** ASSEMBLY
**
*Assembly, name=Assembly
**  
*Instance, name=INTERSTAGE_1/8-1, part=INTERSTAGE_1/8
*End Instance
**  
*Node
      3,           0.,           0.,           0.
*Node
      4,           0.,           0.,         700.
*Node
      1,           0.,           0.,           0.
      2,           0.,           0.,         700.
*Nset, nset=ENCASTRE, instance=INTERSTAGE_1/8-1, generate
     1,  40166,     29
*Nset, nset=LEFT_SURF, instance=INTERSTAGE_1/8-1
  1799,  1800,  1801,  1802,  1803,  1804,  1805,  1806,  1807,  1808,  1809,  1810,  1811,  1812,  1813,  1814
  1815,  1816,  1817,  1818,  1819,  1820,  1821,  1822,  1823,  1824,  1825,  1826,  1827,  3626,  3627,  3628
  3629,  3630,  3631,  3632,  3633,  3634,  3635,  3636,  3637,  3638,  3639,  3640,  3641,  3642,  3643,  3644
  3645,  3646,  3647,  3648,  3649,  3650,  3651,  3652,  3653,  3654,  5453,  5454,  5455,  5456,  5457,  5458
  5459,  5460,  5461,  5462,  5463,  5464,  5465,  5466,  5467,  5468,  5469,  5470,  5471,  5472,  5473,  5474
  5475,  5476,  5477,  5478,  5479,  5480,  5481,  7280,  7281,  7282,  7283,  7284,  7285,  7286,  7287,  7288
  7289,  7290,  7291,  7292,  7293,  7294,  7295,  7296,  7297,  7298,  7299,  7300,  7301,  7302,  7303,  7304
  7305,  7306,  7307,  7308,  9107,  9108,  9109,  9110,  9111,  9112,  9113,  9114,  9115,  9116,  9117,  9118
  9119,  9120,  9121,  9122,  9123,  9124,  9125,  9126,  9127,  9128,  9129,  9130,  9131,  9132,  9133,  9134
  9135, 10934, 10935, 10936, 10937, 10938, 10939, 10940, 10941, 10942, 10943, 10944, 10945, 10946, 10947, 10948
 10949, 10950, 10951, 10952, 10953, 10954, 10955, 10956, 10957, 10958, 10959, 10960, 10961, 10962, 12761, 12762
 12763, 12764, 12765, 12766, 12767, 12768, 12769, 12770, 12771, 12772, 12773, 12774, 12775, 12776, 12777, 12778
 12779, 12780, 12781, 12782, 12783, 12784, 12785, 12786, 12787, 12788, 12789, 14588, 14589, 14590, 14591, 14592
 14593, 14594, 14595, 14596, 14597, 14598, 14599, 14600, 14601, 14602, 14603, 14604, 14605, 14606, 14607, 14608
 14609, 14610, 14611, 14612, 14613, 14614, 14615, 14616, 16415, 16416, 16417, 16418, 16419, 16420, 16421, 16422
 16423, 16424, 16425, 16426, 16427, 16428, 16429, 16430, 16431, 16432, 16433, 16434, 16435, 16436, 16437, 16438
 16439, 16440, 16441, 16442, 16443, 18242, 18243, 18244, 18245, 18246, 18247, 18248, 18249, 18250, 18251, 18252
 18253, 18254, 18255, 18256, 18257, 18258, 18259, 18260, 18261, 18262, 18263, 18264, 18265, 18266, 18267, 18268
 18269, 18270, 20069, 20070, 20071, 20072, 20073, 20074, 20075, 20076, 20077, 20078, 20079, 20080, 20081, 20082
 20083, 20084, 20085, 20086, 20087, 20088, 20089, 20090, 20091, 20092, 20093, 20094, 20095, 20096, 20097, 21896
** ... 20 like lines cut
*Nset, nset=RIGHT_SURF, instance=INTERSTAGE_1/8-1
     1,     2,     3,     4,     5,     6,     7,     8,     9,    10,    11,    12,    13,    14,    15,    16
    17,    18,    19,    20,    21,    22,    23,    24,    25,    26,    27,    28,    29,  1828,  1829,  1830
  1831,  1832,  1833,  1834,  1835,  1836,  1837,  1838,  1839,  1840,  1841,  1842,  1843,  1844,  1845,  1846
  1847,  1848,  1849,  1850,  1851,  1852,  1853,  1854,  1855,  1856,  3655,  3656,  3657,  3658,  3659,  3660
  3661,  3662,  3663,  3664,  3665,  3666,  3667,  3668,  3669,  3670,  3671,  3672,  3673,  3674,  3675,  3676
  3677,  3678,  3679,  3680,  3681,  3682,  3683,  5482,  5483,  5484,  5485,  5486,  5487,  5488,  5489,  5490
  5491,  5492,  5493,  5494,  5495,  5496,  5497,  5498,  5499,  5500,  5501,  5502,  5503,  5504,  5505,  5506
  5507,  5508,  5509,  5510,  7309,  7310,  7311,  7312,  7313,  7314,  7315,  7316,  7317,  7318,  7319,  7320
  7321,  7322,  7323,  7324,  7325,  7326,  7327,  7328,  7329,  7330,  7331,  7332,  7333,  7334,  7335,  7336
  7337,  9136,  9137,  9138,  9139,  9140,  9141,  9142,  9143,  9144,  9145,  9146,  9147,  9148,  9149,  9150
  9151,  9152,  9153,  9154,  9155,  9156,  9157,  9158,  9159,  9160,  9161,  9162,  9163,  9164, 10963, 10964
 10965, 10966, 10967, 10968, 10969, 10970, 10971, 10972, 10973, 10974, 10975, 10976, 10977, 10978, 10979, 10980
 10981, 10982, 10983, 10984, 10985, 10986, 10987, 10988, 10989, 10990, 10991, 12790, 12791, 12792, 12793, 12794
 12795, 12796, 12797, 12798, 12799, 12800, 12801, 12802, 12803, 12804, 12805, 12806, 12807, 12808, 12809, 12810
 12811, 12812, 12813, 12814, 12815, 12816, 12817, 12818, 14617, 14618, 14619, 14620, 14621, 14622, 14623, 14624
 14625, 14626, 14627, 14628, 14629, 14630, 14631, 14632, 14633, 14634, 14635, 14636, 14637, 14638, 14639, 14640
 14641, 14642, 14643, 14644, 14645, 16444, 16445, 16446, 16447, 16448, 16449, 16450, 16451, 16452, 16453, 16454
 16455, 16456, 16457, 16458, 16459, 16460, 16461, 16462, 16463, 16464, 16465, 16466, 16467, 16468, 16469, 16470
 16471, 16472, 18271, 18272, 18273, 18274, 18275, 18276, 18277, 18278, 18279, 18280, 18281, 18282, 18283, 18284
 18285, 18286, 18287, 18288, 18289, 18290, 18291, 18292, 18293, 18294, 18295, 18296, 18297, 18298, 18299, 20098
** ... 20 like lines cut
*Nset, nset=TENSILE_SURFACE, instance=INTERSTAGE_1/8-1, generate
    29,  40194,     29
*Elset, elset=_LEFT_SURF_S5, internal, instance=INTERSTAGE_1/8-1
  1709,  1710,  1711,  1712,  1713,  1714,  1715,  1716,  1717,  1718,  1719,  1720,  1721,  1722,  1723,  1724
  1725,  1726,  1727,  1728,  1729,  1730,  1731,  1732,  1733,  1734,  1735,  1736,  3445,  3446,  3447,  3448
  3449,  3450,  3451,  3452,  3453,  3454,  3455,  3456,  3457,  3458,  3459,  3460,  3461,  3462,  3463,  3464
  3465,  3466,  3467,  3468,  3469,  3470,  3471,  3472,  5181,  5182,  5183,  5184,  5185,  5186,  5187,  5188
  5189,  5190,  5191,  5192,  5193,  5194,  5195,  5196,  5197,  5198,  5199,  5200,  5201,  5202,  5203,  5204
  5205,  5206,  5207,  5208,  6917,  6918,  6919,  6920,  6921,  6922,  6923,  6924,  6925,  6926,  6927,  6928
  6929,  6930,  6931,  6932,  6933,  6934,  6935,  6936,  6937,  6938,  6939,  6940,  6941,  6942,  6943,  6944
  8653,  8654,  8655,  8656,  8657,  8658,  8659,  8660,  8661,  8662,  8663,  8664,  8665,  8666,  8667,  8668
  8669,  8670,  8671,  8672,  8673,  8674,  8675,  8676,  8677,  8678,  8679,  8680, 10389, 10390, 10391, 10392
 10393, 10394, 10395, 10396, 10397, 10398, 10399, 10400, 10401, 10402, 10403, 10404, 10405, 10406, 10407, 10408
 10409, 10410, 10411, 10412, 10413, 10414, 10415, 10416, 12125, 12126, 12127, 12128, 12129, 12130, 12131, 12132
 12133, 12134, 12135, 12136, 12137, 12138, 12139, 12140, 12141, 12142, 12143, 12144, 12145, 12146, 12147, 12148
 12149, 12150, 12151, 12152, 13861, 13862, 13863, 13864, 13865, 13866, 13867, 13868, 13869, 13870, 13871, 13872
 13873, 13874, 13875, 13876, 13877, 13878, 13879, 13880, 13881, 13882, 13883, 13884, 13885, 13886, 13887, 13888
 15597, 15598, 15599, 15600, 15601, 15602, 15603, 15604, 15605, 15606, 15607, 15608, 15609, 15610, 15611, 15612
 15613, 15614, 15615, 15616, 15617, 15618, 15619, 15620, 15621, 15622, 15623, 15624, 17333, 17334, 17335, 17336
 17337, 17338, 17339, 17340, 17341, 17342, 17343, 17344, 17345, 17346, 17347, 17348, 17349, 17350, 17351, 17352
 17353, 17354, 17355, 17356, 17357, 17358, 17359, 17360, 19069, 19070, 19071, 19072, 19073, 19074, 19075, 19076
 19077, 19078, 19079, 19080, 19081, 19082, 19083, 19084, 19085, 19086, 19087, 19088, 19089, 19090, 19091, 19092
 19093, 19094, 19095, 19096, 20805, 20806, 20807, 20808, 20809, 20810, 20811, 20812, 20813, 20814, 20815, 20816
** ... 17 like lines cut
*Nset, nset=_M19, internal, instance=INTERSTAGE_1/8-1
     1,     2,     3,     4,     5,     6,     7,     8,     9,    10,    11,    12,    13,    14,    15,    16
    17,    18,    19,    20,    21,    22,    23,    24,    25,    26,    27,    28,  1828,  1829,  1830,  1831
  1832,  1833,  1834,  1835,  1836,  1837,  1838,  1839,  1840,  1841,  1842,  1843,  1844,  1845,  1846,  1847
  1848,  1849,  1850,  1851,  1852,  1853,  1854,  1855,  3655,  3656,  3657,  3658,  3659,  3660,  3661,  3662
  3663,  3664,  3665,  3666,  3667,  3668,  3669,  3670,  3671,  3672,  3673,  3674,  3675,  3676,  3677,  3678
  3679,  3680,  3681,  3682,  5482,  5483,  5484,  5485,  5486,  5487,  5488,  5489,  5490,  5491,  5492,  5493
  5494,  5495,  5496,  5497,  5498,  5499,  5500,  5501,  5502,  5503,  5504,  5505,  5506,  5507,  5508,  5509
  7309,  7310,  7311,  7312,  7313,  7314,  7315,  7316,  7317,  7318,  7319,  7320,  7321,  7322,  7323,  7324
  7325,  7326,  7327,  7328,  7329,  7330,  7331,  7332,  7333,  7334,  7335,  7336,  9136,  9137,  9138,  9139
  9140,  9141,  9142,  9143,  9144,  9145,  9146,  9147,  9148,  9149,  9150,  9151,  9152,  9153,  9154,  9155
  9156,  9157,  9158,  9159,  9160,  9161,  9162,  9163, 10963, 10964, 10965, 10966, 10967, 10968, 10969, 10970
 10971, 10972, 10973, 10974, 10975, 10976, 10977, 10978, 10979, 10980, 10981, 10982, 10983, 10984, 10985, 10986
 10987, 10988, 10989, 10990, 12790, 12791, 12792, 12793, 12794, 12795, 12796, 12797, 12798, 12799, 12800, 12801
 12802, 12803, 12804, 12805, 12806, 12807, 12808, 12809, 12810, 12811, 12812, 12813, 12814, 12815, 12816, 12817
 14617, 14618, 14619, 14620, 14621, 14622, 14623, 14624, 14625, 14626, 14627, 14628, 14629, 14630, 14631, 14632
 14633, 14634, 14635, 14636, 14637, 14638, 14639, 14640, 14641, 14642, 14643, 14644, 16444, 16445, 16446, 16447
 16448, 16449, 16450, 16451, 16452, 16453, 16454, 16455, 16456, 16457, 16458, 16459, 16460, 16461, 16462, 16463
 16464, 16465, 16466, 16467, 16468, 16469, 16470, 16471, 18271, 18272, 18273, 18274, 18275, 18276, 18277, 18278
 18279, 18280, 18281, 18282, 18283, 18284, 18285, 18286, 18287, 18288, 18289, 18290, 18291, 18292, 18293, 18294
 18295, 18296, 18297, 18298, 20098, 20099, 20100, 20101, 20102, 20103, 20104, 20105, 20106, 20107, 20108, 20109
** ... 19 like lines cut
*Nset, nset=_M20, internal, instance=INTERSTAGE_1/8-1
     1,     2,     3,     4,     5,     6,     7,     8,     9,    10,    11,    12,    13,    14,    15,    16
    17,    18,    19,    20,    21,    22,    23,    24,    25,    26,    27,    28,  1828,  1829,  1830,  1831
  1832,  1833,  1834,  1835,  1836,  1837,  1838,  1839,  1840,  1841,  1842,  1843,  1844,  1845,  1846,  1847
  1848,  1849,  1850,  1851,  1852,  1853,  1854,  1855,  3655,  3656,  3657,  3658,  3659,  3660,  3661,  3662
  3663,  3664,  3665,  3666,  3667,  3668,  3669,  3670,  3671,  3672,  3673,  3674,  3675,  3676,  3677,  3678
  3679,  3680,  3681,  3682,  5482,  5483,  5484,  5485,  5486,  5487,  5488,  5489,  5490,  5491,  5492,  5493
  5494,  5495,  5496,  5497,  5498,  5499,  5500,  5501,  5502,  5503,  5504,  5505,  5506,  5507,  5508,  5509
  7309,  7310,  7311,  7312,  7313,  7314,  7315,  7316,  7317,  7318,  7319,  7320,  7321,  7322,  7323,  7324
  7325,  7326,  7327,  7328,  7329,  7330,  7331,  7332,  7333,  7334,  7335,  7336,  9136,  9137,  9138,  9139
  9140,  9141,  9142,  9143,  9144,  9145,  9146,  9147,  9148,  9149,  9150,  9151,  9152,  9153,  9154,  9155
  9156,  9157,  9158,  9159,  9160,  9161,  9162,  9163, 10963, 10964, 10965, 10966, 10967, 10968, 10969, 10970
 10971, 10972, 10973, 10974, 10975, 10976, 10977, 10978, 10979, 10980, 10981, 10982, 10983, 10984, 10985, 10986
 10987, 10988, 10989, 10990, 12790, 12791, 12792, 12793, 12794, 12795, 12796, 12797, 12798, 12799, 12800, 12801
 12802, 12803, 12804, 12805, 12806, 12807, 12808, 12809, 12810, 12811, 12812, 12813, 12814, 12815, 12816, 12817
 14617, 14618, 14619, 14620, 14621, 14622, 14623, 14624, 14625, 14626, 14627, 14628, 14629, 14630, 14631, 14632
 14633, 14634, 14635, 14636, 14637, 14638, 14639, 14640, 14641, 14642, 14643, 14644, 16444, 16445, 16446, 16447
 16448, 16449, 16450, 16451, 16452, 16453, 16454, 16455, 16456, 16457, 16458, 16459, 16460, 16461, 16462, 16463
 16464, 16465, 16466, 16467, 16468, 16469, 16470, 16471, 18271, 18272, 18273, 18274, 18275, 18276, 18277, 18278
 18279, 18280, 18281, 18282, 18283, 18284, 18285, 18286, 18287, 18288, 18289, 18290, 18291, 18292, 18293, 18294
 18295, 18296, 18297, 18298, 20098, 20099, 20100, 20101, 20102, 20103, 20104, 20105, 20106, 20107, 20108, 20109
** ... 19 like lines cut
*Nset, nset=_M21, internal, instance=INTERSTAGE_1/8-1
  1799,  1800,  1801,  1802,  1803,  1804,  1805,  1806,  1807,  1808,  1809,  1810,  1811,  1812,  1813,  1814
  1815,  1816,  1817,  1818,  1819,  1820,  1821,  1822,  1823,  1824,  1825,  1826,  3626,  3627,  3628,  3629
  3630,  3631,  3632,  3633,  3634,  3635,  3636,  3637,  3638,  3639,  3640,  3641,  3642,  3643,  3644,  3645
  3646,  3647,  3648,  3649,  3650,  3651,  3652,  3653,  5453,  5454,  5455,  5456,  5457,  5458,  5459,  5460
  5461,  5462,  5463,  5464,  5465,  5466,  5467,  5468,  5469,  5470,  5471,  5472,  5473,  5474,  5475,  5476
  5477,  5478,  5479,  5480,  7280,  7281,  7282,  7283,  7284,  7285,  7286,  7287,  7288,  7289,  7290,  7291
  7292,  7293,  7294,  7295,  7296,  7297,  7298,  7299,  7300,  7301,  7302,  7303,  7304,  7305,  7306,  7307
  9107,  9108,  9109,  9110,  9111,  9112,  9113,  9114,  9115,  9116,  9117,  9118,  9119,  9120,  9121,  9122
  9123,  9124,  9125,  9126,  9127,  9128,  9129,  9130,  9131,  9132,  9133,  9134, 10934, 10935, 10936, 10937
 10938, 10939, 10940, 10941, 10942, 10943, 10944, 10945, 10946, 10947, 10948, 10949, 10950, 10951, 10952, 10953
 10954, 10955, 10956, 10957, 10958, 10959, 10960, 10961, 12761, 12762, 12763, 12764, 12765, 12766, 12767, 12768
 12769, 12770, 12771, 12772, 12773, 12774, 12775, 12776, 12777, 12778, 12779, 12780, 12781, 12782, 12783, 12784
 12785, 12786, 12787, 12788, 14588, 14589, 14590, 14591, 14592, 14593, 14594, 14595, 14596, 14597, 14598, 14599
 14600, 14601, 14602, 14603, 14604, 14605, 14606, 14607, 14608, 14609, 14610, 14611, 14612, 14613, 14614, 14615
 16415, 16416, 16417, 16418, 16419, 16420, 16421, 16422, 16423, 16424, 16425, 16426, 16427, 16428, 16429, 16430
 16431, 16432, 16433, 16434, 16435, 16436, 16437, 16438, 16439, 16440, 16441, 16442, 18242, 18243, 18244, 18245
 18246, 18247, 18248, 18249, 18250, 18251, 18252, 18253, 18254, 18255, 18256, 18257, 18258, 18259, 18260, 18261
 18262, 18263, 18264, 18265, 18266, 18267, 18268, 18269, 20069, 20070, 20071, 20072, 20073, 20074, 20075, 20076
 20077, 20078, 20079, 20080, 20081, 20082, 20083, 20084, 20085, 20086, 20087, 20088, 20089, 20090, 20091, 20092
 20093, 20094, 20095, 20096, 21896, 21897, 21898, 21899, 21900, 21901, 21902, 21903, 21904, 21905, 21906, 21907
** ... 19 like lines cut
*Nset, nset=_M22, internal, instance=INTERSTAGE_1/8-1
  1799,  1800,  1801,  1802,  1803,  1804,  1805,  1806,  1807,  1808,  1809,  1810,  1811,  1812,  1813,  1814
  1815,  1816,  1817,  1818,  1819,  1820,  1821,  1822,  1823,  1824,  1825,  1826,  3626,  3627,  3628,  3629
  3630,  3631,  3632,  3633,  3634,  3635,  3636,  3637,  3638,  3639,  3640,  3641,  3642,  3643,  3644,  3645
  3646,  3647,  3648,  3649,  3650,  3651,  3652,  3653,  5453,  5454,  5455,  5456,  5457,  5458,  5459,  5460
  5461,  5462,  5463,  5464,  5465,  5466,  5467,  5468,  5469,  5470,  5471,  5472,  5473,  5474,  5475,  5476
  5477,  5478,  5479,  5480,  7280,  7281,  7282,  7283,  7284,  7285,  7286,  7287,  7288,  7289,  7290,  7291
  7292,  7293,  7294,  7295,  7296,  7297,  7298,  7299,  7300,  7301,  7302,  7303,  7304,  7305,  7306,  7307
  9107,  9108,  9109,  9110,  9111,  9112,  9113,  9114,  9115,  9116,  9117,  9118,  9119,  9120,  9121,  9122
  9123,  9124,  9125,  9126,  9127,  9128,  9129,  9130,  9131,  9132,  9133,  9134, 10934, 10935, 10936, 10937
 10938, 10939, 10940, 10941, 10942, 10943, 10944, 10945, 10946, 10947, 10948, 10949, 10950, 10951, 10952, 10953
 10954, 10955, 10956, 10957, 10958, 10959, 10960, 10961, 12761, 12762, 12763, 12764, 12765, 12766, 12767, 12768
 12769, 12770, 12771, 12772, 12773, 12774, 12775, 12776, 12777, 12778, 12779, 12780, 12781, 12782, 12783, 12784
 12785, 12786, 12787, 12788, 14588, 14589, 14590, 14591, 14592, 14593, 14594, 14595, 14596, 14597, 14598, 14599
 14600, 14601, 14602, 14603, 14604, 14605, 14606, 14607, 14608, 14609, 14610, 14611, 14612, 14613, 14614, 14615
 16415, 16416, 16417, 16418, 16419, 16420, 16421, 16422, 16423, 16424, 16425, 16426, 16427, 16428, 16429, 16430
 16431, 16432, 16433, 16434, 16435, 16436, 16437, 16438, 16439, 16440, 16441, 16442, 18242, 18243, 18244, 18245
 18246, 18247, 18248, 18249, 18250, 18251, 18252, 18253, 18254, 18255, 18256, 18257, 18258, 18259, 18260, 18261
 18262, 18263, 18264, 18265, 18266, 18267, 18268, 18269, 20069, 20070, 20071, 20072, 20073, 20074, 20075, 20076
 20077, 20078, 20079, 20080, 20081, 20082, 20083, 20084, 20085, 20086, 20087, 20088, 20089, 20090, 20091, 20092
 20093, 20094, 20095, 20096, 21896, 21897, 21898, 21899, 21900, 21901, 21902, 21903, 21904, 21905, 21906, 21907
** ... 19 like lines cut
*Nset, nset=_PICKEDSET22, internal
 1,
*Nset, nset=_PICKEDSET23, internal
 2,
*Nset, nset=_PickedSet17, internal
 3,
*Nset, nset=_PickedSet18, internal
 4,
*Elset, elset=_RIGHT_SURF_S3, internal, instance=INTERSTAGE_1/8-1
     1,     2,     3,     4,     5,     6,     7,     8,     9,    10,    11,    12,    13,    14,    15,    16
    17,    18,    19,    20,    21,    22,    23,    24,    25,    26,    27,    28,  1737,  1738,  1739,  1740
  1741,  1742,  1743,  1744,  1745,  1746,  1747,  1748,  1749,  1750,  1751,  1752,  1753,  1754,  1755,  1756
  1757,  1758,  1759,  1760,  1761,  1762,  1763,  1764,  3473,  3474,  3475,  3476,  3477,  3478,  3479,  3480
  3481,  3482,  3483,  3484,  3485,  3486,  3487,  3488,  3489,  3490,  3491,  3492,  3493,  3494,  3495,  3496
  3497,  3498,  3499,  3500,  5209,  5210,  5211,  5212,  5213,  5214,  5215,  5216,  5217,  5218,  5219,  5220
  5221,  5222,  5223,  5224,  5225,  5226,  5227,  5228,  5229,  5230,  5231,  5232,  5233,  5234,  5235,  5236
  6945,  6946,  6947,  6948,  6949,  6950,  6951,  6952,  6953,  6954,  6955,  6956,  6957,  6958,  6959,  6960
  6961,  6962,  6963,  6964,  6965,  6966,  6967,  6968,  6969,  6970,  6971,  6972,  8681,  8682,  8683,  8684
  8685,  8686,  8687,  8688,  8689,  8690,  8691,  8692,  8693,  8694,  8695,  8696,  8697,  8698,  8699,  8700
  8701,  8702,  8703,  8704,  8705,  8706,  8707,  8708, 10417, 10418, 10419, 10420, 10421, 10422, 10423, 10424
 10425, 10426, 10427, 10428, 10429, 10430, 10431, 10432, 10433, 10434, 10435, 10436, 10437, 10438, 10439, 10440
 10441, 10442, 10443, 10444, 12153, 12154, 12155, 12156, 12157, 12158, 12159, 12160, 12161, 12162, 12163, 12164
 12165, 12166, 12167, 12168, 12169, 12170, 12171, 12172, 12173, 12174, 12175, 12176, 12177, 12178, 12179, 12180
 13889, 13890, 13891, 13892, 13893, 13894, 13895, 13896, 13897, 13898, 13899, 13900, 13901, 13902, 13903, 13904
 13905, 13906, 13907, 13908, 13909, 13910, 13911, 13912, 13913, 13914, 13915, 13916, 15625, 15626, 15627, 15628
 15629, 15630, 15631, 15632, 15633, 15634, 15635, 15636, 15637, 15638, 15639, 15640, 15641, 15642, 15643, 15644
 15645, 15646, 15647, 15648, 15649, 15650, 15651, 15652, 17361, 17362, 17363, 17364, 17365, 17366, 17367, 17368
 17369, 17370, 17371, 17372, 17373, 17374, 17375, 17376, 17377, 17378, 17379, 17380, 17381, 17382, 17383, 17384
 17385, 17386, 17387, 17388, 19097, 19098, 19099, 19100, 19101, 19102, 19103, 19104, 19105, 19106, 19107, 19108
** ... 17 like lines cut
*Surface, type=ELEMENT, name=LEFT_SURF
_LEFT_SURF_S5, S5
*Surface, type=ELEMENT, name=RIGHT_SURF
_RIGHT_SURF_S3, S3
*Tie, name=Int-CycSymm, cyclic symmetry, adjust=yes
LEFT_SURF, RIGHT_SURF
*End Assembly
** 
** MATERIALS
** 
*Material, name=CFRP_-45DEGREE
*Elastic, type=ANISOTROPIC
43834., 3705.,11488.,33434., 3705.,43834.,    0.,    0.
    0., 4300.,    0.,    0.,    0., -900., 4300.,31482.
 -889.,31482.,    0.,    0.,35818.
*Material, name=CFRP_0DEGREE
*Elastic, type=ENGINEERING CONSTANTS
9650.,   9650., 136600.,     0.4, 0.02049, 0.02049,   3400.,   5200.
   5200.,
*Material, name=CFRP_45DEGREE
*Elastic, type=ANISOTROPIC
43834.,  3705., 11488.,  3343.,  3705., 43834.,     0.,     0.
     0.,  4300.,     0.,     0.,     0.,   900.,  4300.,-31482.
   889.,-31482.,     0.,     0., 35818.
*Material, name=CFRP_90DEGREE
*Elastic, type=ENGINEERING CONSTANTS
9650., 136600.,   9650., 0.02049,     0.4,    0.29,   5200.,   3400.
   5200.,
*Material, name=DEFECT
*Elastic
300000., 0.29
*Material, name=FOAMCORE
*Elastic
 80.1, 0.29
** 
** BOUNDARY CONDITIONS
** 
** Name: Disp-BC-1 Type: Symmetry/Antisymmetry/Encastre
*Boundary
ENCASTRE, ENCASTRE
** Name: Disp-BC-2 Type: Displacement/Rotation
*Boundary
RIGHT_SURF, 1, 1
** Name: Disp-BC-3 Type: Displacement/Rotation
*Boundary
RIGHT_SURF, 2, 2
** Name: Disp-BC-4 Type: Displacement/Rotation
*Boundary
LEFT_SURF, 1, 1
** Name: Disp-BC-5 Type: Displacement/Rotation
*Boundary
LEFT_SURF, 2, 2
*Cyclic Symmetry Model, n=8
0., 0., 0., 0., 0., 700.
** ----------------------------------------------------------------
** 
** STEP: Step-1
** 
*Step, name=Step-1, nlgeom=NO, inc=1000
*Static
0.05, 1., 1e-05, 0.05
** 
** BOUNDARY CONDITIONS
** 
** Name: Disp-BC-1 Type: Symmetry/Antisymmetry/Encastre
*Boundary, op=NEW
ENCASTRE, ENCASTRE
** Name: Disp-BC-2 Type: Displacement/Rotation
*Boundary, op=NEW
** Name: Disp-BC-3 Type: Displacement/Rotation
*Boundary, op=NEW
** Name: Disp-BC-4 Type: Displacement/Rotation
*Boundary, op=NEW
** Name: Disp-BC-5 Type: Displacement/Rotation
*Boundary, op=NEW
** Name: Disp-BC-6 Type: Displacement/Rotation
*Boundary, op=NEW
TENSILE_SURFACE, 1, 1
** Name: Disp-BC-7 Type: Displacement/Rotation
*Boundary, op=NEW
TENSILE_SURFACE, 2, 2
** Name: Disp-BC-8 Type: Displacement/Rotation
*Boundary, op=NEW
TENSILE_SURFACE, 3, 3, 10.
** Name: Disp-BC-9 Type: Displacement/Rotation
*Boundary, op=NEW
TENSILE_SURFACE, 4, 4
** Name: Disp-BC-10 Type: Displacement/Rotation
*Boundary, op=NEW
TENSILE_SURFACE, 5, 5
** Name: Disp-BC-11 Type: Displacement/Rotation
*Boundary, op=NEW
TENSILE_SURFACE, 6, 6
** Name: Disp-BC-12 Type: Displacement/Rotation
*Boundary, op=NEW
_M19, 1, 1
** Name: Disp-BC-13 Type: Displacement/Rotation
*Boundary, op=NEW
_M20, 2, 2
** Name: Disp-BC-14 Type: Displacement/Rotation
*Boundary, op=NEW
_M21, 1, 1
** Name: Disp-BC-15 Type: Displacement/Rotation
*Boundary, op=NEW
_M22, 2, 2
** 
** OUTPUT REQUESTS
** 
*Restart, write, frequency=0
** 
** FIELD OUTPUT: F-Output-1
** 
*Output, field, variable=PRESELECT
** 
** HISTORY OUTPUT: H-Output-1
** 
*Output, history, variable=PRESELECT
*End Step
